version 2
run Default-0-20250121-19:13:44-3653
attr configname Default
attr datetime 20250121-19:13:44
attr experiment Default
attr inifile omnetpp.ini
attr iterationvars ""
attr iterationvarsf ""
attr measurement ""
attr network highwayNetwork
attr processid 3653
attr repetition 0
attr replication #0
attr resultdir results
attr runnumber 0
attr seedset 0
param *.playgroundSizeX 2500m
param *.playgroundSizeY 2500m
param *.playgroundSizeZ 50m
param *.annotations.draw true
param *.manager.updateInterval 1s
param *.manager.host "\"localhost\""
param *.manager.port 9999
param *.manager.autoShutdown true
param *.manager.launchConfig "xmldoc(\"highway.launchd.xml\")"
param *.rsu[0].mobility.x 2000
param *.rsu[0].mobility.y 2000
param *.rsu[0].mobility.z 3
param *.rsu[*].applType "\"TraCIDemoRSU11p\""
param *.rsu[*].appl.headerLength "80 bit"
param *.rsu[*].appl.sendBeacons false
param *.rsu[*].appl.dataOnSch false
param *.rsu[*].appl.beaconInterval 1s
param *.rsu[*].appl.beaconUserPriority 7
param *.rsu[*].appl.dataUserPriority 5
param *.rsu[*].nic.phy80211p.antennaOffsetZ "0 m"
param *.connectionManager.sendDirect true
param *.connectionManager.maxInterfDist 2600m
param *.connectionManager.drawMaxIntfDist false
param *.**.nic.mac1609_4.useServiceChannel false
param *.**.nic.mac1609_4.txPower 20mW
param *.**.nic.mac1609_4.bitrate 6Mbps
param *.**.nic.phy80211p.minPowerLevel -110dBm
param *.**.nic.phy80211p.useNoiseFloor true
param *.**.nic.phy80211p.noiseFloor -98dBm
param *.**.nic.phy80211p.decider "xmldoc(\"config.xml\")"
param *.**.nic.phy80211p.analogueModels "xmldoc(\"config.xml\")"
param *.**.nic.phy80211p.usePropagationDelay true
param *.**.nic.phy80211p.antenna "xmldoc(\"antenna.xml\", \"/root/Antenna[@id='monopole']\")"
param *.node[*].nic.phy80211p.antennaOffsetY "0 m"
param *.node[*].nic.phy80211p.antennaOffsetZ "1.895 m"
param *.node[*].applType "\"MyVeinsApp\""
param *.node[*].appl.headerLength "80 bit"
param *.node[*].appl.sendBeacons true
param *.node[*].appl.dataOnSch false
param *.node[*].appl.beaconInterval 1s
param *.node[*].veinsmobility.x 0
param *.node[*].veinsmobility.y 0
param *.node[*].veinsmobility.z 0
param *.node[*].veinsmobility.setHostSpeed false

scalar highwayNetwork.node[6].appl generatedWSMs 0
scalar highwayNetwork.node[6].appl receivedWSMs 0
scalar highwayNetwork.node[6].appl generatedBSMs 22
scalar highwayNetwork.node[6].appl receivedBSMs 118
scalar highwayNetwork.node[6].appl generatedWSAs 0
scalar highwayNetwork.node[6].appl receivedWSAs 0
scalar highwayNetwork.node[6].nic.phy80211p busyTime 0.0014370909090909
scalar highwayNetwork.node[6].nic.mac1609_4 ReceivedUnicastPackets 0
scalar highwayNetwork.node[6].nic.mac1609_4 ReceivedBroadcasts 118
scalar highwayNetwork.node[6].nic.mac1609_4 SentPackets 22
scalar highwayNetwork.node[6].nic.mac1609_4 SentAcknowledgements 0
scalar highwayNetwork.node[6].nic.mac1609_4 RetriesExceeded 0
scalar highwayNetwork.node[6].nic.mac1609_4 SNIRLostPackets 186
scalar highwayNetwork.node[6].nic.mac1609_4 RXTXLostPackets 0
scalar highwayNetwork.node[6].nic.mac1609_4 TotalLostPackets 186
scalar highwayNetwork.node[6].nic.mac1609_4 DroppedPacketsInMac 0
scalar highwayNetwork.node[6].nic.mac1609_4 TooLittleTime 0
scalar highwayNetwork.node[6].nic.mac1609_4 TimesIntoBackoff 22
scalar highwayNetwork.node[6].nic.mac1609_4 SlotsBackoff 33
scalar highwayNetwork.node[6].nic.mac1609_4 NumInternalContention 0
scalar highwayNetwork.node[6].nic.mac1609_4 totalBusyTime 0.033926
scalar highwayNetwork.node[6].nic.mac1609_4 retriesExceeded:count 0
attr source org_car2x_veins_modules_mac_sigRetriesExceeded
scalar highwayNetwork.node[6].nic.mac1609_4 sentAcks:count 0
attr source org_car2x_veins_modules_mac_sigSentAck
scalar highwayNetwork.node[6].nic.mac1609_4 sentPackets:count 22
attr source org_car2x_veins_modules_mac_sigSentPacket
scalar highwayNetwork.node[6].nic.mac1609_4 collisions:count 0
attr source org_car2x_veins_modules_mac_sigCollision
scalar highwayNetwork.node[6].nic.mac1609_4 channelBusy:timeavg 0.0015420909090909
attr source org_car2x_veins_modules_mac_sigChannelBusy
scalar highwayNetwork.node[6].veinsmobility startTime 13
scalar highwayNetwork.node[6].veinsmobility totalTime 21
scalar highwayNetwork.node[6].veinsmobility stopTime 35
scalar highwayNetwork.node[6].veinsmobility minSpeed 1.5972831639228
scalar highwayNetwork.node[6].veinsmobility maxSpeed 41.643750106357
scalar highwayNetwork.node[6].veinsmobility totalDistance 462.76262612741
scalar highwayNetwork.node[6].veinsmobility totalCO2Emission 302.26248370492
scalar highwayNetwork.node[5].appl generatedWSMs 0
scalar highwayNetwork.node[5].appl receivedWSMs 0
scalar highwayNetwork.node[5].appl generatedBSMs 24
scalar highwayNetwork.node[5].appl receivedBSMs 282
scalar highwayNetwork.node[5].appl generatedWSAs 0
scalar highwayNetwork.node[5].appl receivedWSAs 0
scalar highwayNetwork.node[5].nic.phy80211p busyTime 0.001417
scalar highwayNetwork.node[5].nic.mac1609_4 ReceivedUnicastPackets 0
scalar highwayNetwork.node[5].nic.mac1609_4 ReceivedBroadcasts 282
scalar highwayNetwork.node[5].nic.mac1609_4 SentPackets 24
scalar highwayNetwork.node[5].nic.mac1609_4 SentAcknowledgements 0
scalar highwayNetwork.node[5].nic.mac1609_4 RetriesExceeded 0
scalar highwayNetwork.node[5].nic.mac1609_4 SNIRLostPackets 45
scalar highwayNetwork.node[5].nic.mac1609_4 RXTXLostPackets 0
scalar highwayNetwork.node[5].nic.mac1609_4 TotalLostPackets 45
scalar highwayNetwork.node[5].nic.mac1609_4 DroppedPacketsInMac 0
scalar highwayNetwork.node[5].nic.mac1609_4 TooLittleTime 0
scalar highwayNetwork.node[5].nic.mac1609_4 TimesIntoBackoff 24
scalar highwayNetwork.node[5].nic.mac1609_4 SlotsBackoff 34
scalar highwayNetwork.node[5].nic.mac1609_4 NumInternalContention 0
scalar highwayNetwork.node[5].nic.mac1609_4 totalBusyTime 0.036528
scalar highwayNetwork.node[5].nic.mac1609_4 retriesExceeded:count 0
attr source org_car2x_veins_modules_mac_sigRetriesExceeded
scalar highwayNetwork.node[5].nic.mac1609_4 sentAcks:count 0
attr source org_car2x_veins_modules_mac_sigSentAck
scalar highwayNetwork.node[5].nic.mac1609_4 sentPackets:count 24
attr source org_car2x_veins_modules_mac_sigSentPacket
scalar highwayNetwork.node[5].nic.mac1609_4 collisions:count 0
attr source org_car2x_veins_modules_mac_sigCollision
scalar highwayNetwork.node[5].nic.mac1609_4 channelBusy:timeavg 0.001522
attr source org_car2x_veins_modules_mac_sigChannelBusy
scalar highwayNetwork.node[5].veinsmobility startTime 12
scalar highwayNetwork.node[5].veinsmobility totalTime 23
scalar highwayNetwork.node[5].veinsmobility stopTime 36
scalar highwayNetwork.node[5].veinsmobility minSpeed 2.1092279310804
scalar highwayNetwork.node[5].veinsmobility maxSpeed 35.332297230758
scalar highwayNetwork.node[5].veinsmobility totalDistance 463.48626620007
scalar highwayNetwork.node[5].veinsmobility totalCO2Emission 238.45201419869
scalar highwayNetwork.node[8].appl generatedWSMs 0
scalar highwayNetwork.node[8].appl receivedWSMs 0
scalar highwayNetwork.node[8].appl generatedBSMs 22
scalar highwayNetwork.node[8].appl receivedBSMs 138
scalar highwayNetwork.node[8].appl generatedWSAs 0
scalar highwayNetwork.node[8].appl receivedWSAs 0
scalar highwayNetwork.node[8].nic.phy80211p busyTime 0.0015930909090909
scalar highwayNetwork.node[8].nic.mac1609_4 ReceivedUnicastPackets 0
scalar highwayNetwork.node[8].nic.mac1609_4 ReceivedBroadcasts 138
scalar highwayNetwork.node[8].nic.mac1609_4 SentPackets 22
scalar highwayNetwork.node[8].nic.mac1609_4 SentAcknowledgements 0
scalar highwayNetwork.node[8].nic.mac1609_4 RetriesExceeded 0
scalar highwayNetwork.node[8].nic.mac1609_4 SNIRLostPackets 199
scalar highwayNetwork.node[8].nic.mac1609_4 RXTXLostPackets 0
scalar highwayNetwork.node[8].nic.mac1609_4 TotalLostPackets 199
scalar highwayNetwork.node[8].nic.mac1609_4 DroppedPacketsInMac 0
scalar highwayNetwork.node[8].nic.mac1609_4 TooLittleTime 0
scalar highwayNetwork.node[8].nic.mac1609_4 TimesIntoBackoff 22
scalar highwayNetwork.node[8].nic.mac1609_4 SlotsBackoff 28
scalar highwayNetwork.node[8].nic.mac1609_4 NumInternalContention 0
scalar highwayNetwork.node[8].nic.mac1609_4 totalBusyTime 0.037358
scalar highwayNetwork.node[8].nic.mac1609_4 retriesExceeded:count 0
attr source org_car2x_veins_modules_mac_sigRetriesExceeded
scalar highwayNetwork.node[8].nic.mac1609_4 sentAcks:count 0
attr source org_car2x_veins_modules_mac_sigSentAck
scalar highwayNetwork.node[8].nic.mac1609_4 sentPackets:count 22
attr source org_car2x_veins_modules_mac_sigSentPacket
scalar highwayNetwork.node[8].nic.mac1609_4 collisions:count 0
attr source org_car2x_veins_modules_mac_sigCollision
scalar highwayNetwork.node[8].nic.mac1609_4 channelBusy:timeavg 0.0016980909090909
attr source org_car2x_veins_modules_mac_sigChannelBusy
scalar highwayNetwork.node[8].veinsmobility startTime 16
scalar highwayNetwork.node[8].veinsmobility totalTime 21
scalar highwayNetwork.node[8].veinsmobility stopTime 38
scalar highwayNetwork.node[8].veinsmobility minSpeed 1.7762572988868
scalar highwayNetwork.node[8].veinsmobility maxSpeed 40.857924310373
scalar highwayNetwork.node[8].veinsmobility totalDistance 456.11666392572
scalar highwayNetwork.node[8].veinsmobility totalCO2Emission 293.46530567409
scalar highwayNetwork.node[15].appl generatedWSMs 0
scalar highwayNetwork.node[15].appl receivedWSMs 0
scalar highwayNetwork.node[15].appl generatedBSMs 24
scalar highwayNetwork.node[15].appl receivedBSMs 194
scalar highwayNetwork.node[15].appl generatedWSAs 0
scalar highwayNetwork.node[15].appl receivedWSAs 0
scalar highwayNetwork.node[15].nic.phy80211p busyTime 0.0018373333333333
scalar highwayNetwork.node[15].nic.mac1609_4 ReceivedUnicastPackets 0
scalar highwayNetwork.node[15].nic.mac1609_4 ReceivedBroadcasts 194
scalar highwayNetwork.node[15].nic.mac1609_4 SentPackets 24
scalar highwayNetwork.node[15].nic.mac1609_4 SentAcknowledgements 0
scalar highwayNetwork.node[15].nic.mac1609_4 RetriesExceeded 0
scalar highwayNetwork.node[15].nic.mac1609_4 SNIRLostPackets 230
scalar highwayNetwork.node[15].nic.mac1609_4 RXTXLostPackets 0
scalar highwayNetwork.node[15].nic.mac1609_4 TotalLostPackets 230
scalar highwayNetwork.node[15].nic.mac1609_4 DroppedPacketsInMac 0
scalar highwayNetwork.node[15].nic.mac1609_4 TooLittleTime 0
scalar highwayNetwork.node[15].nic.mac1609_4 TimesIntoBackoff 24
scalar highwayNetwork.node[15].nic.mac1609_4 SlotsBackoff 34
scalar highwayNetwork.node[15].nic.mac1609_4 NumInternalContention 0
scalar highwayNetwork.node[15].nic.mac1609_4 totalBusyTime 0.046616
scalar highwayNetwork.node[15].nic.mac1609_4 retriesExceeded:count 0
attr source org_car2x_veins_modules_mac_sigRetriesExceeded
scalar highwayNetwork.node[15].nic.mac1609_4 sentAcks:count 0
attr source org_car2x_veins_modules_mac_sigSentAck
scalar highwayNetwork.node[15].nic.mac1609_4 sentPackets:count 24
attr source org_car2x_veins_modules_mac_sigSentPacket
scalar highwayNetwork.node[15].nic.mac1609_4 collisions:count 0
attr source org_car2x_veins_modules_mac_sigCollision
scalar highwayNetwork.node[15].nic.mac1609_4 channelBusy:timeavg 0.0019423333333333
attr source org_car2x_veins_modules_mac_sigChannelBusy
scalar highwayNetwork.node[15].veinsmobility startTime 22
scalar highwayNetwork.node[15].veinsmobility totalTime 23
scalar highwayNetwork.node[15].veinsmobility stopTime 46
scalar highwayNetwork.node[15].veinsmobility minSpeed 1.7110360453138
scalar highwayNetwork.node[15].veinsmobility maxSpeed 36.409209114598
scalar highwayNetwork.node[15].veinsmobility totalDistance 482.63501918497
scalar highwayNetwork.node[15].veinsmobility totalCO2Emission 270.65384273278
scalar highwayNetwork.node[3].appl generatedWSMs 0
scalar highwayNetwork.node[3].appl receivedWSMs 0
scalar highwayNetwork.node[3].appl generatedBSMs 47
scalar highwayNetwork.node[3].appl receivedBSMs 458
scalar highwayNetwork.node[3].appl generatedWSAs 0
scalar highwayNetwork.node[3].appl receivedWSAs 0
scalar highwayNetwork.node[3].nic.phy80211p busyTime 0.0016064680851064
scalar highwayNetwork.node[3].nic.mac1609_4 ReceivedUnicastPackets 0
scalar highwayNetwork.node[3].nic.mac1609_4 ReceivedBroadcasts 458
scalar highwayNetwork.node[3].nic.mac1609_4 SentPackets 47
scalar highwayNetwork.node[3].nic.mac1609_4 SentAcknowledgements 0
scalar highwayNetwork.node[3].nic.mac1609_4 RetriesExceeded 0
scalar highwayNetwork.node[3].nic.mac1609_4 SNIRLostPackets 268
scalar highwayNetwork.node[3].nic.mac1609_4 RXTXLostPackets 0
scalar highwayNetwork.node[3].nic.mac1609_4 TotalLostPackets 268
scalar highwayNetwork.node[3].nic.mac1609_4 DroppedPacketsInMac 0
scalar highwayNetwork.node[3].nic.mac1609_4 TooLittleTime 0
scalar highwayNetwork.node[3].nic.mac1609_4 TimesIntoBackoff 47
scalar highwayNetwork.node[3].nic.mac1609_4 SlotsBackoff 75
scalar highwayNetwork.node[3].nic.mac1609_4 NumInternalContention 0
scalar highwayNetwork.node[3].nic.mac1609_4 totalBusyTime 0.080439
scalar highwayNetwork.node[3].nic.mac1609_4 retriesExceeded:count 0
attr source org_car2x_veins_modules_mac_sigRetriesExceeded
scalar highwayNetwork.node[3].nic.mac1609_4 sentAcks:count 0
attr source org_car2x_veins_modules_mac_sigSentAck
scalar highwayNetwork.node[3].nic.mac1609_4 sentPackets:count 47
attr source org_car2x_veins_modules_mac_sigSentPacket
scalar highwayNetwork.node[3].nic.mac1609_4 collisions:count 0
attr source org_car2x_veins_modules_mac_sigCollision
scalar highwayNetwork.node[3].nic.mac1609_4 channelBusy:timeavg 0.0017114680851064
attr source org_car2x_veins_modules_mac_sigChannelBusy
scalar highwayNetwork.node[3].veinsmobility startTime 8
scalar highwayNetwork.node[3].veinsmobility totalTime 46
scalar highwayNetwork.node[3].veinsmobility stopTime 55
scalar highwayNetwork.node[3].veinsmobility minSpeed 1.4645417755703
scalar highwayNetwork.node[3].veinsmobility maxSpeed 40.304062622747
scalar highwayNetwork.node[3].veinsmobility totalDistance 950.22074282909
scalar highwayNetwork.node[3].veinsmobility totalCO2Emission 511.36009738565
scalar highwayNetwork.node[11].appl generatedWSMs 0
scalar highwayNetwork.node[11].appl receivedWSMs 0
scalar highwayNetwork.node[11].appl generatedBSMs 50
scalar highwayNetwork.node[11].appl receivedBSMs 312
scalar highwayNetwork.node[11].appl generatedWSAs 0
scalar highwayNetwork.node[11].appl receivedWSAs 0
scalar highwayNetwork.node[11].nic.phy80211p busyTime 0.0021611200000001
scalar highwayNetwork.node[11].nic.mac1609_4 ReceivedUnicastPackets 0
scalar highwayNetwork.node[11].nic.mac1609_4 ReceivedBroadcasts 312
scalar highwayNetwork.node[11].nic.mac1609_4 SentPackets 50
scalar highwayNetwork.node[11].nic.mac1609_4 SentAcknowledgements 0
scalar highwayNetwork.node[11].nic.mac1609_4 RetriesExceeded 0
scalar highwayNetwork.node[11].nic.mac1609_4 SNIRLostPackets 727
scalar highwayNetwork.node[11].nic.mac1609_4 RXTXLostPackets 0
scalar highwayNetwork.node[11].nic.mac1609_4 TotalLostPackets 727
scalar highwayNetwork.node[11].nic.mac1609_4 DroppedPacketsInMac 0
scalar highwayNetwork.node[11].nic.mac1609_4 TooLittleTime 0
scalar highwayNetwork.node[11].nic.mac1609_4 TimesIntoBackoff 50
scalar highwayNetwork.node[11].nic.mac1609_4 SlotsBackoff 85
scalar highwayNetwork.node[11].nic.mac1609_4 NumInternalContention 0
scalar highwayNetwork.node[11].nic.mac1609_4 totalBusyTime 0.113306
scalar highwayNetwork.node[11].nic.mac1609_4 retriesExceeded:count 0
attr source org_car2x_veins_modules_mac_sigRetriesExceeded
scalar highwayNetwork.node[11].nic.mac1609_4 sentAcks:count 0
attr source org_car2x_veins_modules_mac_sigSentAck
scalar highwayNetwork.node[11].nic.mac1609_4 sentPackets:count 50
attr source org_car2x_veins_modules_mac_sigSentPacket
scalar highwayNetwork.node[11].nic.mac1609_4 collisions:count 0
attr source org_car2x_veins_modules_mac_sigCollision
scalar highwayNetwork.node[11].nic.mac1609_4 channelBusy:timeavg 0.0022661200000001
attr source org_car2x_veins_modules_mac_sigChannelBusy
scalar highwayNetwork.node[11].veinsmobility startTime 19
scalar highwayNetwork.node[11].veinsmobility totalTime 49
scalar highwayNetwork.node[11].veinsmobility stopTime 69
scalar highwayNetwork.node[11].veinsmobility minSpeed 2.5672767461976
scalar highwayNetwork.node[11].veinsmobility maxSpeed 35.283167327117
scalar highwayNetwork.node[11].veinsmobility totalDistance 975.18572149495
scalar highwayNetwork.node[11].veinsmobility totalCO2Emission 409.01971464681
scalar highwayNetwork.node[13].appl generatedWSMs 0
scalar highwayNetwork.node[13].appl receivedWSMs 0
scalar highwayNetwork.node[13].appl generatedBSMs 49
scalar highwayNetwork.node[13].appl receivedBSMs 737
scalar highwayNetwork.node[13].appl generatedWSAs 0
scalar highwayNetwork.node[13].appl receivedWSAs 0
scalar highwayNetwork.node[13].nic.phy80211p busyTime 0.0022158367346939
scalar highwayNetwork.node[13].nic.mac1609_4 ReceivedUnicastPackets 0
scalar highwayNetwork.node[13].nic.mac1609_4 ReceivedBroadcasts 737
scalar highwayNetwork.node[13].nic.mac1609_4 SentPackets 49
scalar highwayNetwork.node[13].nic.mac1609_4 SentAcknowledgements 0
scalar highwayNetwork.node[13].nic.mac1609_4 RetriesExceeded 0
scalar highwayNetwork.node[13].nic.mac1609_4 SNIRLostPackets 307
scalar highwayNetwork.node[13].nic.mac1609_4 RXTXLostPackets 0
scalar highwayNetwork.node[13].nic.mac1609_4 TotalLostPackets 307
scalar highwayNetwork.node[13].nic.mac1609_4 DroppedPacketsInMac 0
scalar highwayNetwork.node[13].nic.mac1609_4 TooLittleTime 0
scalar highwayNetwork.node[13].nic.mac1609_4 TimesIntoBackoff 49
scalar highwayNetwork.node[13].nic.mac1609_4 SlotsBackoff 84
scalar highwayNetwork.node[13].nic.mac1609_4 NumInternalContention 0
scalar highwayNetwork.node[13].nic.mac1609_4 totalBusyTime 0.113721
scalar highwayNetwork.node[13].nic.mac1609_4 retriesExceeded:count 0
attr source org_car2x_veins_modules_mac_sigRetriesExceeded
scalar highwayNetwork.node[13].nic.mac1609_4 sentAcks:count 0
attr source org_car2x_veins_modules_mac_sigSentAck
scalar highwayNetwork.node[13].nic.mac1609_4 sentPackets:count 49
attr source org_car2x_veins_modules_mac_sigSentPacket
scalar highwayNetwork.node[13].nic.mac1609_4 collisions:count 0
attr source org_car2x_veins_modules_mac_sigCollision
scalar highwayNetwork.node[13].nic.mac1609_4 channelBusy:timeavg 0.0023208367346939
attr source org_car2x_veins_modules_mac_sigChannelBusy
scalar highwayNetwork.node[13].veinsmobility startTime 21
scalar highwayNetwork.node[13].veinsmobility totalTime 48
scalar highwayNetwork.node[13].veinsmobility stopTime 70
scalar highwayNetwork.node[13].veinsmobility minSpeed 2.5723342792829
scalar highwayNetwork.node[13].veinsmobility maxSpeed 36.543532995066
scalar highwayNetwork.node[13].veinsmobility totalDistance 983.30354053694
scalar highwayNetwork.node[13].veinsmobility totalCO2Emission 465.66790205601
scalar highwayNetwork.node[26].appl generatedWSMs 0
scalar highwayNetwork.node[26].appl receivedWSMs 0
scalar highwayNetwork.node[26].appl generatedBSMs 25
scalar highwayNetwork.node[26].appl receivedBSMs 416
scalar highwayNetwork.node[26].appl generatedWSAs 0
scalar highwayNetwork.node[26].appl receivedWSAs 0
scalar highwayNetwork.node[26].nic.phy80211p busyTime 0.00279968
scalar highwayNetwork.node[26].nic.mac1609_4 ReceivedUnicastPackets 0
scalar highwayNetwork.node[26].nic.mac1609_4 ReceivedBroadcasts 416
scalar highwayNetwork.node[26].nic.mac1609_4 SentPackets 25
scalar highwayNetwork.node[26].nic.mac1609_4 SentAcknowledgements 0
scalar highwayNetwork.node[26].nic.mac1609_4 RetriesExceeded 0
scalar highwayNetwork.node[26].nic.mac1609_4 SNIRLostPackets 257
scalar highwayNetwork.node[26].nic.mac1609_4 RXTXLostPackets 0
scalar highwayNetwork.node[26].nic.mac1609_4 TotalLostPackets 257
scalar highwayNetwork.node[26].nic.mac1609_4 DroppedPacketsInMac 0
scalar highwayNetwork.node[26].nic.mac1609_4 TooLittleTime 0
scalar highwayNetwork.node[26].nic.mac1609_4 TimesIntoBackoff 25
scalar highwayNetwork.node[26].nic.mac1609_4 SlotsBackoff 44
scalar highwayNetwork.node[26].nic.mac1609_4 NumInternalContention 0
scalar highwayNetwork.node[26].nic.mac1609_4 totalBusyTime 0.072617
scalar highwayNetwork.node[26].nic.mac1609_4 retriesExceeded:count 0
attr source org_car2x_veins_modules_mac_sigRetriesExceeded
scalar highwayNetwork.node[26].nic.mac1609_4 sentAcks:count 0
attr source org_car2x_veins_modules_mac_sigSentAck
scalar highwayNetwork.node[26].nic.mac1609_4 sentPackets:count 25
attr source org_car2x_veins_modules_mac_sigSentPacket
scalar highwayNetwork.node[26].nic.mac1609_4 collisions:count 0
attr source org_car2x_veins_modules_mac_sigCollision
scalar highwayNetwork.node[26].nic.mac1609_4 channelBusy:timeavg 0.00290468
attr source org_car2x_veins_modules_mac_sigChannelBusy
scalar highwayNetwork.node[26].veinsmobility startTime 50
scalar highwayNetwork.node[26].veinsmobility totalTime 24
scalar highwayNetwork.node[26].veinsmobility stopTime 75
scalar highwayNetwork.node[26].veinsmobility minSpeed 2.1157240657136
scalar highwayNetwork.node[26].veinsmobility maxSpeed 35.205717198412
scalar highwayNetwork.node[26].veinsmobility totalDistance 487.79085968589
scalar highwayNetwork.node[26].veinsmobility totalCO2Emission 217.46487662488
scalar highwayNetwork.node[16].appl generatedWSMs 0
scalar highwayNetwork.node[16].appl receivedWSMs 0
scalar highwayNetwork.node[16].appl generatedBSMs 51
scalar highwayNetwork.node[16].appl receivedBSMs 896
scalar highwayNetwork.node[16].appl generatedWSAs 0
scalar highwayNetwork.node[16].appl receivedWSAs 0
scalar highwayNetwork.node[16].nic.phy80211p busyTime 0.0023695686274511
scalar highwayNetwork.node[16].nic.mac1609_4 ReceivedUnicastPackets 0
scalar highwayNetwork.node[16].nic.mac1609_4 ReceivedBroadcasts 896
scalar highwayNetwork.node[16].nic.mac1609_4 SentPackets 51
scalar highwayNetwork.node[16].nic.mac1609_4 SentAcknowledgements 0
scalar highwayNetwork.node[16].nic.mac1609_4 RetriesExceeded 0
scalar highwayNetwork.node[16].nic.mac1609_4 SNIRLostPackets 266
scalar highwayNetwork.node[16].nic.mac1609_4 RXTXLostPackets 0
scalar highwayNetwork.node[16].nic.mac1609_4 TotalLostPackets 266
scalar highwayNetwork.node[16].nic.mac1609_4 DroppedPacketsInMac 0
scalar highwayNetwork.node[16].nic.mac1609_4 TooLittleTime 0
scalar highwayNetwork.node[16].nic.mac1609_4 TimesIntoBackoff 51
scalar highwayNetwork.node[16].nic.mac1609_4 SlotsBackoff 69
scalar highwayNetwork.node[16].nic.mac1609_4 NumInternalContention 0
scalar highwayNetwork.node[16].nic.mac1609_4 totalBusyTime 0.126203
scalar highwayNetwork.node[16].nic.mac1609_4 retriesExceeded:count 0
attr source org_car2x_veins_modules_mac_sigRetriesExceeded
scalar highwayNetwork.node[16].nic.mac1609_4 sentAcks:count 0
attr source org_car2x_veins_modules_mac_sigSentAck
scalar highwayNetwork.node[16].nic.mac1609_4 sentPackets:count 51
attr source org_car2x_veins_modules_mac_sigSentPacket
scalar highwayNetwork.node[16].nic.mac1609_4 collisions:count 0
attr source org_car2x_veins_modules_mac_sigCollision
scalar highwayNetwork.node[16].nic.mac1609_4 channelBusy:timeavg 0.0024745686274511
attr source org_car2x_veins_modules_mac_sigChannelBusy
scalar highwayNetwork.node[16].veinsmobility startTime 25
scalar highwayNetwork.node[16].veinsmobility totalTime 50
scalar highwayNetwork.node[16].veinsmobility stopTime 76
scalar highwayNetwork.node[16].veinsmobility minSpeed 2.1647521474864
scalar highwayNetwork.node[16].veinsmobility maxSpeed 35.523537789717
scalar highwayNetwork.node[16].veinsmobility totalDistance 982.01150138991
scalar highwayNetwork.node[16].veinsmobility totalCO2Emission 441.27570447618
scalar highwayNetwork.node[28].appl generatedWSMs 0
scalar highwayNetwork.node[28].appl receivedWSMs 0
scalar highwayNetwork.node[28].appl generatedBSMs 24
scalar highwayNetwork.node[28].appl receivedBSMs 416
scalar highwayNetwork.node[28].appl generatedWSAs 0
scalar highwayNetwork.node[28].appl receivedWSAs 0
scalar highwayNetwork.node[28].nic.phy80211p busyTime 0.0028773333333333
scalar highwayNetwork.node[28].nic.mac1609_4 ReceivedUnicastPackets 0
scalar highwayNetwork.node[28].nic.mac1609_4 ReceivedBroadcasts 416
scalar highwayNetwork.node[28].nic.mac1609_4 SentPackets 24
scalar highwayNetwork.node[28].nic.mac1609_4 SentAcknowledgements 0
scalar highwayNetwork.node[28].nic.mac1609_4 RetriesExceeded 0
scalar highwayNetwork.node[28].nic.mac1609_4 SNIRLostPackets 248
scalar highwayNetwork.node[28].nic.mac1609_4 RXTXLostPackets 0
scalar highwayNetwork.node[28].nic.mac1609_4 TotalLostPackets 248
scalar highwayNetwork.node[28].nic.mac1609_4 DroppedPacketsInMac 0
scalar highwayNetwork.node[28].nic.mac1609_4 TooLittleTime 0
scalar highwayNetwork.node[28].nic.mac1609_4 TimesIntoBackoff 24
scalar highwayNetwork.node[28].nic.mac1609_4 SlotsBackoff 32
scalar highwayNetwork.node[28].nic.mac1609_4 NumInternalContention 0
scalar highwayNetwork.node[28].nic.mac1609_4 totalBusyTime 0.071576
scalar highwayNetwork.node[28].nic.mac1609_4 retriesExceeded:count 0
attr source org_car2x_veins_modules_mac_sigRetriesExceeded
scalar highwayNetwork.node[28].nic.mac1609_4 sentAcks:count 0
attr source org_car2x_veins_modules_mac_sigSentAck
scalar highwayNetwork.node[28].nic.mac1609_4 sentPackets:count 24
attr source org_car2x_veins_modules_mac_sigSentPacket
scalar highwayNetwork.node[28].nic.mac1609_4 collisions:count 0
attr source org_car2x_veins_modules_mac_sigCollision
scalar highwayNetwork.node[28].nic.mac1609_4 channelBusy:timeavg 0.0029823333333334
attr source org_car2x_veins_modules_mac_sigChannelBusy
scalar highwayNetwork.node[28].veinsmobility startTime 53
scalar highwayNetwork.node[28].veinsmobility totalTime 23
scalar highwayNetwork.node[28].veinsmobility stopTime 77
scalar highwayNetwork.node[28].veinsmobility minSpeed 1.5940206127707
scalar highwayNetwork.node[28].veinsmobility maxSpeed 35.557216323889
scalar highwayNetwork.node[28].veinsmobility totalDistance 466.3816580185
scalar highwayNetwork.node[28].veinsmobility totalCO2Emission 235.21177916787
scalar highwayNetwork.node[30].appl generatedWSMs 0
scalar highwayNetwork.node[30].appl receivedWSMs 0
scalar highwayNetwork.node[30].appl generatedBSMs 25
scalar highwayNetwork.node[30].appl receivedBSMs 438
scalar highwayNetwork.node[30].appl generatedWSAs 0
scalar highwayNetwork.node[30].appl receivedWSAs 0
scalar highwayNetwork.node[30].nic.phy80211p busyTime 0.00293696
scalar highwayNetwork.node[30].nic.mac1609_4 ReceivedUnicastPackets 0
scalar highwayNetwork.node[30].nic.mac1609_4 ReceivedBroadcasts 438
scalar highwayNetwork.node[30].nic.mac1609_4 SentPackets 25
scalar highwayNetwork.node[30].nic.mac1609_4 SentAcknowledgements 0
scalar highwayNetwork.node[30].nic.mac1609_4 RetriesExceeded 0
scalar highwayNetwork.node[30].nic.mac1609_4 SNIRLostPackets 268
scalar highwayNetwork.node[30].nic.mac1609_4 RXTXLostPackets 0
scalar highwayNetwork.node[30].nic.mac1609_4 TotalLostPackets 268
scalar highwayNetwork.node[30].nic.mac1609_4 DroppedPacketsInMac 0
scalar highwayNetwork.node[30].nic.mac1609_4 TooLittleTime 0
scalar highwayNetwork.node[30].nic.mac1609_4 TimesIntoBackoff 25
scalar highwayNetwork.node[30].nic.mac1609_4 SlotsBackoff 49
scalar highwayNetwork.node[30].nic.mac1609_4 NumInternalContention 0
scalar highwayNetwork.node[30].nic.mac1609_4 totalBusyTime 0.076049
scalar highwayNetwork.node[30].nic.mac1609_4 retriesExceeded:count 0
attr source org_car2x_veins_modules_mac_sigRetriesExceeded
scalar highwayNetwork.node[30].nic.mac1609_4 sentAcks:count 0
attr source org_car2x_veins_modules_mac_sigSentAck
scalar highwayNetwork.node[30].nic.mac1609_4 sentPackets:count 25
attr source org_car2x_veins_modules_mac_sigSentPacket
scalar highwayNetwork.node[30].nic.mac1609_4 collisions:count 0
attr source org_car2x_veins_modules_mac_sigCollision
scalar highwayNetwork.node[30].nic.mac1609_4 channelBusy:timeavg 0.00304196
attr source org_car2x_veins_modules_mac_sigChannelBusy
scalar highwayNetwork.node[30].veinsmobility startTime 56
scalar highwayNetwork.node[30].veinsmobility totalTime 24
scalar highwayNetwork.node[30].veinsmobility stopTime 81
scalar highwayNetwork.node[30].veinsmobility minSpeed 1.4561102757929
scalar highwayNetwork.node[30].veinsmobility maxSpeed 36.559137369879
scalar highwayNetwork.node[30].veinsmobility totalDistance 482.06575501451
scalar highwayNetwork.node[30].veinsmobility totalCO2Emission 244.69216985018
scalar highwayNetwork.node[18].appl generatedWSMs 0
scalar highwayNetwork.node[18].appl receivedWSMs 0
scalar highwayNetwork.node[18].appl generatedBSMs 51
scalar highwayNetwork.node[18].appl receivedBSMs 933
scalar highwayNetwork.node[18].appl generatedWSAs 0
scalar highwayNetwork.node[18].appl receivedWSAs 0
scalar highwayNetwork.node[18].nic.phy80211p busyTime 0.0025163921568628
scalar highwayNetwork.node[18].nic.mac1609_4 ReceivedUnicastPackets 0
scalar highwayNetwork.node[18].nic.mac1609_4 ReceivedBroadcasts 933
scalar highwayNetwork.node[18].nic.mac1609_4 SentPackets 51
scalar highwayNetwork.node[18].nic.mac1609_4 SentAcknowledgements 0
scalar highwayNetwork.node[18].nic.mac1609_4 RetriesExceeded 0
scalar highwayNetwork.node[18].nic.mac1609_4 SNIRLostPackets 301
scalar highwayNetwork.node[18].nic.mac1609_4 RXTXLostPackets 0
scalar highwayNetwork.node[18].nic.mac1609_4 TotalLostPackets 301
scalar highwayNetwork.node[18].nic.mac1609_4 DroppedPacketsInMac 0
scalar highwayNetwork.node[18].nic.mac1609_4 TooLittleTime 0
scalar highwayNetwork.node[18].nic.mac1609_4 TimesIntoBackoff 51
scalar highwayNetwork.node[18].nic.mac1609_4 SlotsBackoff 75
scalar highwayNetwork.node[18].nic.mac1609_4 NumInternalContention 0
scalar highwayNetwork.node[18].nic.mac1609_4 totalBusyTime 0.133691
scalar highwayNetwork.node[18].nic.mac1609_4 retriesExceeded:count 0
attr source org_car2x_veins_modules_mac_sigRetriesExceeded
scalar highwayNetwork.node[18].nic.mac1609_4 sentAcks:count 0
attr source org_car2x_veins_modules_mac_sigSentAck
scalar highwayNetwork.node[18].nic.mac1609_4 sentPackets:count 51
attr source org_car2x_veins_modules_mac_sigSentPacket
scalar highwayNetwork.node[18].nic.mac1609_4 collisions:count 0
attr source org_car2x_veins_modules_mac_sigCollision
scalar highwayNetwork.node[18].nic.mac1609_4 channelBusy:timeavg 0.0026213921568628
attr source org_car2x_veins_modules_mac_sigChannelBusy
scalar highwayNetwork.node[18].veinsmobility startTime 31
scalar highwayNetwork.node[18].veinsmobility totalTime 50
scalar highwayNetwork.node[18].veinsmobility stopTime 82
scalar highwayNetwork.node[18].veinsmobility minSpeed 2.0350046114065
scalar highwayNetwork.node[18].veinsmobility maxSpeed 37.036050308705
scalar highwayNetwork.node[18].veinsmobility totalDistance 984.29550733938
scalar highwayNetwork.node[18].veinsmobility totalCO2Emission 490.80485251141
scalar highwayNetwork.node[19].appl generatedWSMs 0
scalar highwayNetwork.node[19].appl receivedWSMs 0
scalar highwayNetwork.node[19].appl generatedBSMs 48
scalar highwayNetwork.node[19].appl receivedBSMs 883
scalar highwayNetwork.node[19].appl generatedWSAs 0
scalar highwayNetwork.node[19].appl receivedWSAs 0
scalar highwayNetwork.node[19].nic.phy80211p busyTime 0.0025566666666667
scalar highwayNetwork.node[19].nic.mac1609_4 ReceivedUnicastPackets 0
scalar highwayNetwork.node[19].nic.mac1609_4 ReceivedBroadcasts 883
scalar highwayNetwork.node[19].nic.mac1609_4 SentPackets 48
scalar highwayNetwork.node[19].nic.mac1609_4 SentAcknowledgements 0
scalar highwayNetwork.node[19].nic.mac1609_4 RetriesExceeded 0
scalar highwayNetwork.node[19].nic.mac1609_4 SNIRLostPackets 297
scalar highwayNetwork.node[19].nic.mac1609_4 RXTXLostPackets 0
scalar highwayNetwork.node[19].nic.mac1609_4 TotalLostPackets 297
scalar highwayNetwork.node[19].nic.mac1609_4 DroppedPacketsInMac 0
scalar highwayNetwork.node[19].nic.mac1609_4 TooLittleTime 0
scalar highwayNetwork.node[19].nic.mac1609_4 TimesIntoBackoff 48
scalar highwayNetwork.node[19].nic.mac1609_4 SlotsBackoff 71
scalar highwayNetwork.node[19].nic.mac1609_4 NumInternalContention 0
scalar highwayNetwork.node[19].nic.mac1609_4 totalBusyTime 0.12776
scalar highwayNetwork.node[19].nic.mac1609_4 retriesExceeded:count 0
attr source org_car2x_veins_modules_mac_sigRetriesExceeded
scalar highwayNetwork.node[19].nic.mac1609_4 sentAcks:count 0
attr source org_car2x_veins_modules_mac_sigSentAck
scalar highwayNetwork.node[19].nic.mac1609_4 sentPackets:count 48
attr source org_car2x_veins_modules_mac_sigSentPacket
scalar highwayNetwork.node[19].nic.mac1609_4 collisions:count 0
attr source org_car2x_veins_modules_mac_sigCollision
scalar highwayNetwork.node[19].nic.mac1609_4 channelBusy:timeavg 0.0026616666666667
attr source org_car2x_veins_modules_mac_sigChannelBusy
scalar highwayNetwork.node[19].veinsmobility startTime 34
scalar highwayNetwork.node[19].veinsmobility totalTime 47
scalar highwayNetwork.node[19].veinsmobility stopTime 82
scalar highwayNetwork.node[19].veinsmobility minSpeed 2.5380126828328
scalar highwayNetwork.node[19].veinsmobility maxSpeed 36.409111689321
scalar highwayNetwork.node[19].veinsmobility totalDistance 984.5859005207
scalar highwayNetwork.node[19].veinsmobility totalCO2Emission 487.2446058569
scalar highwayNetwork.node[21].appl generatedWSMs 0
scalar highwayNetwork.node[21].appl receivedWSMs 0
scalar highwayNetwork.node[21].appl generatedBSMs 48
scalar highwayNetwork.node[21].appl receivedBSMs 544
scalar highwayNetwork.node[21].appl generatedWSAs 0
scalar highwayNetwork.node[21].appl receivedWSAs 0
scalar highwayNetwork.node[21].nic.phy80211p busyTime 0.0026216666666668
scalar highwayNetwork.node[21].nic.mac1609_4 ReceivedUnicastPackets 0
scalar highwayNetwork.node[21].nic.mac1609_4 ReceivedBroadcasts 544
scalar highwayNetwork.node[21].nic.mac1609_4 SentPackets 48
scalar highwayNetwork.node[21].nic.mac1609_4 SentAcknowledgements 0
scalar highwayNetwork.node[21].nic.mac1609_4 RetriesExceeded 0
scalar highwayNetwork.node[21].nic.mac1609_4 SNIRLostPackets 666
scalar highwayNetwork.node[21].nic.mac1609_4 RXTXLostPackets 0
scalar highwayNetwork.node[21].nic.mac1609_4 TotalLostPackets 666
scalar highwayNetwork.node[21].nic.mac1609_4 DroppedPacketsInMac 0
scalar highwayNetwork.node[21].nic.mac1609_4 TooLittleTime 0
scalar highwayNetwork.node[21].nic.mac1609_4 TimesIntoBackoff 48
scalar highwayNetwork.node[21].nic.mac1609_4 SlotsBackoff 86
scalar highwayNetwork.node[21].nic.mac1609_4 NumInternalContention 0
scalar highwayNetwork.node[21].nic.mac1609_4 totalBusyTime 0.13088
scalar highwayNetwork.node[21].nic.mac1609_4 retriesExceeded:count 0
attr source org_car2x_veins_modules_mac_sigRetriesExceeded
scalar highwayNetwork.node[21].nic.mac1609_4 sentAcks:count 0
attr source org_car2x_veins_modules_mac_sigSentAck
scalar highwayNetwork.node[21].nic.mac1609_4 sentPackets:count 48
attr source org_car2x_veins_modules_mac_sigSentPacket
scalar highwayNetwork.node[21].nic.mac1609_4 collisions:count 0
attr source org_car2x_veins_modules_mac_sigCollision
scalar highwayNetwork.node[21].nic.mac1609_4 channelBusy:timeavg 0.0027266666666667
attr source org_car2x_veins_modules_mac_sigChannelBusy
scalar highwayNetwork.node[21].veinsmobility startTime 37
scalar highwayNetwork.node[21].veinsmobility totalTime 47
scalar highwayNetwork.node[21].veinsmobility stopTime 85
scalar highwayNetwork.node[21].veinsmobility minSpeed 1.5349268991034
scalar highwayNetwork.node[21].veinsmobility maxSpeed 36.440253142989
scalar highwayNetwork.node[21].veinsmobility totalDistance 955.32732530504
scalar highwayNetwork.node[21].veinsmobility totalCO2Emission 461.65480560944
scalar highwayNetwork.node[20].appl generatedWSMs 0
scalar highwayNetwork.node[20].appl receivedWSMs 0
scalar highwayNetwork.node[20].appl generatedBSMs 49
scalar highwayNetwork.node[20].appl receivedBSMs 867
scalar highwayNetwork.node[20].appl generatedWSAs 0
scalar highwayNetwork.node[20].appl receivedWSAs 0
scalar highwayNetwork.node[20].nic.phy80211p busyTime 0.0026297142857144
scalar highwayNetwork.node[20].nic.mac1609_4 ReceivedUnicastPackets 0
scalar highwayNetwork.node[20].nic.mac1609_4 ReceivedBroadcasts 867
scalar highwayNetwork.node[20].nic.mac1609_4 SentPackets 49
scalar highwayNetwork.node[20].nic.mac1609_4 SentAcknowledgements 0
scalar highwayNetwork.node[20].nic.mac1609_4 RetriesExceeded 0
scalar highwayNetwork.node[20].nic.mac1609_4 SNIRLostPackets 372
scalar highwayNetwork.node[20].nic.mac1609_4 RXTXLostPackets 0
scalar highwayNetwork.node[20].nic.mac1609_4 TotalLostPackets 372
scalar highwayNetwork.node[20].nic.mac1609_4 DroppedPacketsInMac 0
scalar highwayNetwork.node[20].nic.mac1609_4 TooLittleTime 0
scalar highwayNetwork.node[20].nic.mac1609_4 TimesIntoBackoff 49
scalar highwayNetwork.node[20].nic.mac1609_4 SlotsBackoff 77
scalar highwayNetwork.node[20].nic.mac1609_4 NumInternalContention 0
scalar highwayNetwork.node[20].nic.mac1609_4 totalBusyTime 0.134001
scalar highwayNetwork.node[20].nic.mac1609_4 retriesExceeded:count 0
attr source org_car2x_veins_modules_mac_sigRetriesExceeded
scalar highwayNetwork.node[20].nic.mac1609_4 sentAcks:count 0
attr source org_car2x_veins_modules_mac_sigSentAck
scalar highwayNetwork.node[20].nic.mac1609_4 sentPackets:count 49
attr source org_car2x_veins_modules_mac_sigSentPacket
scalar highwayNetwork.node[20].nic.mac1609_4 collisions:count 0
attr source org_car2x_veins_modules_mac_sigCollision
scalar highwayNetwork.node[20].nic.mac1609_4 channelBusy:timeavg 0.0027347142857144
attr source org_car2x_veins_modules_mac_sigChannelBusy
scalar highwayNetwork.node[20].veinsmobility startTime 37
scalar highwayNetwork.node[20].veinsmobility totalTime 48
scalar highwayNetwork.node[20].veinsmobility stopTime 86
scalar highwayNetwork.node[20].veinsmobility minSpeed 2.0334746356588
scalar highwayNetwork.node[20].veinsmobility maxSpeed 42.882864029599
scalar highwayNetwork.node[20].veinsmobility totalDistance 976.52398151832
scalar highwayNetwork.node[20].veinsmobility totalCO2Emission 532.55251418103
scalar highwayNetwork.node[33].appl generatedWSMs 0
scalar highwayNetwork.node[33].appl receivedWSMs 0
scalar highwayNetwork.node[33].appl generatedBSMs 25
scalar highwayNetwork.node[33].appl receivedBSMs 463
scalar highwayNetwork.node[33].appl generatedWSAs 0
scalar highwayNetwork.node[33].appl receivedWSAs 0
scalar highwayNetwork.node[33].nic.phy80211p busyTime 0.0029952
scalar highwayNetwork.node[33].nic.mac1609_4 ReceivedUnicastPackets 0
scalar highwayNetwork.node[33].nic.mac1609_4 ReceivedBroadcasts 463
scalar highwayNetwork.node[33].nic.mac1609_4 SentPackets 25
scalar highwayNetwork.node[33].nic.mac1609_4 SentAcknowledgements 0
scalar highwayNetwork.node[33].nic.mac1609_4 RetriesExceeded 0
scalar highwayNetwork.node[33].nic.mac1609_4 SNIRLostPackets 257
scalar highwayNetwork.node[33].nic.mac1609_4 RXTXLostPackets 0
scalar highwayNetwork.node[33].nic.mac1609_4 TotalLostPackets 257
scalar highwayNetwork.node[33].nic.mac1609_4 DroppedPacketsInMac 0
scalar highwayNetwork.node[33].nic.mac1609_4 TooLittleTime 0
scalar highwayNetwork.node[33].nic.mac1609_4 TimesIntoBackoff 25
scalar highwayNetwork.node[33].nic.mac1609_4 SlotsBackoff 36
scalar highwayNetwork.node[33].nic.mac1609_4 NumInternalContention 0
scalar highwayNetwork.node[33].nic.mac1609_4 totalBusyTime 0.077505
scalar highwayNetwork.node[33].nic.mac1609_4 retriesExceeded:count 0
attr source org_car2x_veins_modules_mac_sigRetriesExceeded
scalar highwayNetwork.node[33].nic.mac1609_4 sentAcks:count 0
attr source org_car2x_veins_modules_mac_sigSentAck
scalar highwayNetwork.node[33].nic.mac1609_4 sentPackets:count 25
attr source org_car2x_veins_modules_mac_sigSentPacket
scalar highwayNetwork.node[33].nic.mac1609_4 collisions:count 0
attr source org_car2x_veins_modules_mac_sigCollision
scalar highwayNetwork.node[33].nic.mac1609_4 channelBusy:timeavg 0.0031002
attr source org_car2x_veins_modules_mac_sigChannelBusy
scalar highwayNetwork.node[33].veinsmobility startTime 62
scalar highwayNetwork.node[33].veinsmobility totalTime 24
scalar highwayNetwork.node[33].veinsmobility stopTime 87
scalar highwayNetwork.node[33].veinsmobility minSpeed 2.4172514801612
scalar highwayNetwork.node[33].veinsmobility maxSpeed 36.12584893133
scalar highwayNetwork.node[33].veinsmobility totalDistance 474.52358337872
scalar highwayNetwork.node[33].veinsmobility totalCO2Emission 227.93358977877
scalar highwayNetwork.node[7].appl generatedWSMs 0
scalar highwayNetwork.node[7].appl receivedWSMs 0
scalar highwayNetwork.node[7].appl generatedBSMs 77
scalar highwayNetwork.node[7].appl receivedBSMs 1253
scalar highwayNetwork.node[7].appl generatedWSAs 0
scalar highwayNetwork.node[7].appl receivedWSAs 0
scalar highwayNetwork.node[7].nic.phy80211p busyTime 0.0022839480519481
scalar highwayNetwork.node[7].nic.mac1609_4 ReceivedUnicastPackets 0
scalar highwayNetwork.node[7].nic.mac1609_4 ReceivedBroadcasts 1253
scalar highwayNetwork.node[7].nic.mac1609_4 SentPackets 77
scalar highwayNetwork.node[7].nic.mac1609_4 SentAcknowledgements 0
scalar highwayNetwork.node[7].nic.mac1609_4 RetriesExceeded 0
scalar highwayNetwork.node[7].nic.mac1609_4 SNIRLostPackets 438
scalar highwayNetwork.node[7].nic.mac1609_4 RXTXLostPackets 0
scalar highwayNetwork.node[7].nic.mac1609_4 TotalLostPackets 438
scalar highwayNetwork.node[7].nic.mac1609_4 DroppedPacketsInMac 0
scalar highwayNetwork.node[7].nic.mac1609_4 TooLittleTime 0
scalar highwayNetwork.node[7].nic.mac1609_4 TimesIntoBackoff 77
scalar highwayNetwork.node[7].nic.mac1609_4 SlotsBackoff 118
scalar highwayNetwork.node[7].nic.mac1609_4 NumInternalContention 0
scalar highwayNetwork.node[7].nic.mac1609_4 totalBusyTime 0.183949
scalar highwayNetwork.node[7].nic.mac1609_4 retriesExceeded:count 0
attr source org_car2x_veins_modules_mac_sigRetriesExceeded
scalar highwayNetwork.node[7].nic.mac1609_4 sentAcks:count 0
attr source org_car2x_veins_modules_mac_sigSentAck
scalar highwayNetwork.node[7].nic.mac1609_4 sentPackets:count 77
attr source org_car2x_veins_modules_mac_sigSentPacket
scalar highwayNetwork.node[7].nic.mac1609_4 collisions:count 0
attr source org_car2x_veins_modules_mac_sigCollision
scalar highwayNetwork.node[7].nic.mac1609_4 channelBusy:timeavg 0.0023889480519481
attr source org_car2x_veins_modules_mac_sigChannelBusy
scalar highwayNetwork.node[7].veinsmobility startTime 13
scalar highwayNetwork.node[7].veinsmobility totalTime 76
scalar highwayNetwork.node[7].veinsmobility stopTime 90
scalar highwayNetwork.node[7].veinsmobility minSpeed 2.0628387846518
scalar highwayNetwork.node[7].veinsmobility maxSpeed 35.19944724932
scalar highwayNetwork.node[7].veinsmobility totalDistance 1470.3127463933
scalar highwayNetwork.node[7].veinsmobility totalCO2Emission 658.59492343215
scalar highwayNetwork.node[10].appl generatedWSMs 0
scalar highwayNetwork.node[10].appl receivedWSMs 0
scalar highwayNetwork.node[10].appl generatedBSMs 74
scalar highwayNetwork.node[10].appl receivedBSMs 947
scalar highwayNetwork.node[10].appl generatedWSAs 0
scalar highwayNetwork.node[10].appl receivedWSAs 0
scalar highwayNetwork.node[10].nic.phy80211p busyTime 0.0023751351351351
scalar highwayNetwork.node[10].nic.mac1609_4 ReceivedUnicastPackets 0
scalar highwayNetwork.node[10].nic.mac1609_4 ReceivedBroadcasts 947
scalar highwayNetwork.node[10].nic.mac1609_4 SentPackets 74
scalar highwayNetwork.node[10].nic.mac1609_4 SentAcknowledgements 0
scalar highwayNetwork.node[10].nic.mac1609_4 RetriesExceeded 0
scalar highwayNetwork.node[10].nic.mac1609_4 SNIRLostPackets 743
scalar highwayNetwork.node[10].nic.mac1609_4 RXTXLostPackets 0
scalar highwayNetwork.node[10].nic.mac1609_4 TotalLostPackets 743
scalar highwayNetwork.node[10].nic.mac1609_4 DroppedPacketsInMac 0
scalar highwayNetwork.node[10].nic.mac1609_4 TooLittleTime 0
scalar highwayNetwork.node[10].nic.mac1609_4 TimesIntoBackoff 74
scalar highwayNetwork.node[10].nic.mac1609_4 SlotsBackoff 98
scalar highwayNetwork.node[10].nic.mac1609_4 NumInternalContention 0
scalar highwayNetwork.node[10].nic.mac1609_4 totalBusyTime 0.18353
scalar highwayNetwork.node[10].nic.mac1609_4 retriesExceeded:count 0
attr source org_car2x_veins_modules_mac_sigRetriesExceeded
scalar highwayNetwork.node[10].nic.mac1609_4 sentAcks:count 0
attr source org_car2x_veins_modules_mac_sigSentAck
scalar highwayNetwork.node[10].nic.mac1609_4 sentPackets:count 74
attr source org_car2x_veins_modules_mac_sigSentPacket
scalar highwayNetwork.node[10].nic.mac1609_4 collisions:count 0
attr source org_car2x_veins_modules_mac_sigCollision
scalar highwayNetwork.node[10].nic.mac1609_4 channelBusy:timeavg 0.0024801351351351
attr source org_car2x_veins_modules_mac_sigChannelBusy
scalar highwayNetwork.node[10].veinsmobility startTime 17
scalar highwayNetwork.node[10].veinsmobility totalTime 73
scalar highwayNetwork.node[10].veinsmobility stopTime 91
scalar highwayNetwork.node[10].veinsmobility minSpeed 1.9205229326617
scalar highwayNetwork.node[10].veinsmobility maxSpeed 35.889094109917
scalar highwayNetwork.node[10].veinsmobility totalDistance 1474.1859992382
scalar highwayNetwork.node[10].veinsmobility totalCO2Emission 656.06449074783
scalar highwayNetwork.node[0].appl generatedWSMs 0
scalar highwayNetwork.node[0].appl receivedWSMs 0
scalar highwayNetwork.node[0].appl generatedBSMs 96
scalar highwayNetwork.node[0].appl receivedBSMs 1168
scalar highwayNetwork.node[0].appl generatedWSAs 0
scalar highwayNetwork.node[0].appl receivedWSAs 0
scalar highwayNetwork.node[0].nic.phy80211p busyTime 0.0020875833333333
scalar highwayNetwork.node[0].nic.mac1609_4 ReceivedUnicastPackets 0
scalar highwayNetwork.node[0].nic.mac1609_4 ReceivedBroadcasts 1168
scalar highwayNetwork.node[0].nic.mac1609_4 SentPackets 96
scalar highwayNetwork.node[0].nic.mac1609_4 SentAcknowledgements 0
scalar highwayNetwork.node[0].nic.mac1609_4 RetriesExceeded 0
scalar highwayNetwork.node[0].nic.mac1609_4 SNIRLostPackets 759
scalar highwayNetwork.node[0].nic.mac1609_4 RXTXLostPackets 0
scalar highwayNetwork.node[0].nic.mac1609_4 TotalLostPackets 759
scalar highwayNetwork.node[0].nic.mac1609_4 DroppedPacketsInMac 0
scalar highwayNetwork.node[0].nic.mac1609_4 TooLittleTime 0
scalar highwayNetwork.node[0].nic.mac1609_4 TimesIntoBackoff 96
scalar highwayNetwork.node[0].nic.mac1609_4 SlotsBackoff 155
scalar highwayNetwork.node[0].nic.mac1609_4 NumInternalContention 0
scalar highwayNetwork.node[0].nic.mac1609_4 totalBusyTime 0.210488
scalar highwayNetwork.node[0].nic.mac1609_4 retriesExceeded:count 0
attr source org_car2x_veins_modules_mac_sigRetriesExceeded
scalar highwayNetwork.node[0].nic.mac1609_4 sentAcks:count 0
attr source org_car2x_veins_modules_mac_sigSentAck
scalar highwayNetwork.node[0].nic.mac1609_4 sentPackets:count 96
attr source org_car2x_veins_modules_mac_sigSentPacket
scalar highwayNetwork.node[0].nic.mac1609_4 collisions:count 0
attr source org_car2x_veins_modules_mac_sigCollision
scalar highwayNetwork.node[0].nic.mac1609_4 channelBusy:timeavg 0.0021925833333333
attr source org_car2x_veins_modules_mac_sigChannelBusy
scalar highwayNetwork.node[0].veinsmobility startTime 1
scalar highwayNetwork.node[0].veinsmobility totalTime 95
scalar highwayNetwork.node[0].veinsmobility stopTime 97
scalar highwayNetwork.node[0].veinsmobility minSpeed 1.4392818092834
scalar highwayNetwork.node[0].veinsmobility maxSpeed 36.116051286715
scalar highwayNetwork.node[0].veinsmobility totalDistance 1975.0049443232
scalar highwayNetwork.node[0].veinsmobility totalCO2Emission 886.37414362721
scalar highwayNetwork.node[12].appl generatedWSMs 0
scalar highwayNetwork.node[12].appl receivedWSMs 0
scalar highwayNetwork.node[12].appl generatedBSMs 80
scalar highwayNetwork.node[12].appl receivedBSMs 1390
scalar highwayNetwork.node[12].appl generatedWSAs 0
scalar highwayNetwork.node[12].appl receivedWSAs 0
scalar highwayNetwork.node[12].nic.phy80211p busyTime 0.0024895
scalar highwayNetwork.node[12].nic.mac1609_4 ReceivedUnicastPackets 0
scalar highwayNetwork.node[12].nic.mac1609_4 ReceivedBroadcasts 1390
scalar highwayNetwork.node[12].nic.mac1609_4 SentPackets 80
scalar highwayNetwork.node[12].nic.mac1609_4 SentAcknowledgements 0
scalar highwayNetwork.node[12].nic.mac1609_4 RetriesExceeded 0
scalar highwayNetwork.node[12].nic.mac1609_4 SNIRLostPackets 525
scalar highwayNetwork.node[12].nic.mac1609_4 RXTXLostPackets 0
scalar highwayNetwork.node[12].nic.mac1609_4 TotalLostPackets 525
scalar highwayNetwork.node[12].nic.mac1609_4 DroppedPacketsInMac 0
scalar highwayNetwork.node[12].nic.mac1609_4 TooLittleTime 0
scalar highwayNetwork.node[12].nic.mac1609_4 TimesIntoBackoff 80
scalar highwayNetwork.node[12].nic.mac1609_4 SlotsBackoff 115
scalar highwayNetwork.node[12].nic.mac1609_4 NumInternalContention 0
scalar highwayNetwork.node[12].nic.mac1609_4 totalBusyTime 0.20756
scalar highwayNetwork.node[12].nic.mac1609_4 retriesExceeded:count 0
attr source org_car2x_veins_modules_mac_sigRetriesExceeded
scalar highwayNetwork.node[12].nic.mac1609_4 sentAcks:count 0
attr source org_car2x_veins_modules_mac_sigSentAck
scalar highwayNetwork.node[12].nic.mac1609_4 sentPackets:count 80
attr source org_car2x_veins_modules_mac_sigSentPacket
scalar highwayNetwork.node[12].nic.mac1609_4 collisions:count 0
attr source org_car2x_veins_modules_mac_sigCollision
scalar highwayNetwork.node[12].nic.mac1609_4 channelBusy:timeavg 0.0025945
attr source org_car2x_veins_modules_mac_sigChannelBusy
scalar highwayNetwork.node[12].veinsmobility startTime 19
scalar highwayNetwork.node[12].veinsmobility totalTime 79
scalar highwayNetwork.node[12].veinsmobility stopTime 99
scalar highwayNetwork.node[12].veinsmobility minSpeed 1.6638731566025
scalar highwayNetwork.node[12].veinsmobility maxSpeed 36.202621733863
scalar highwayNetwork.node[12].veinsmobility totalDistance 1470.0458445312
scalar highwayNetwork.node[12].veinsmobility totalCO2Emission 653.87288370464
scalar highwayNetwork.node[1].appl generatedWSMs 0
scalar highwayNetwork.node[1].appl receivedWSMs 0
scalar highwayNetwork.node[1].appl generatedBSMs 98
scalar highwayNetwork.node[1].appl receivedBSMs 1241
scalar highwayNetwork.node[1].appl generatedWSAs 0
scalar highwayNetwork.node[1].appl receivedWSAs 0
scalar highwayNetwork.node[1].nic.phy80211p busyTime 0.0022084081632653
scalar highwayNetwork.node[1].nic.mac1609_4 ReceivedUnicastPackets 0
scalar highwayNetwork.node[1].nic.mac1609_4 ReceivedBroadcasts 1241
scalar highwayNetwork.node[1].nic.mac1609_4 SentPackets 98
scalar highwayNetwork.node[1].nic.mac1609_4 SentAcknowledgements 0
scalar highwayNetwork.node[1].nic.mac1609_4 RetriesExceeded 0
scalar highwayNetwork.node[1].nic.mac1609_4 SNIRLostPackets 840
scalar highwayNetwork.node[1].nic.mac1609_4 RXTXLostPackets 0
scalar highwayNetwork.node[1].nic.mac1609_4 TotalLostPackets 840
scalar highwayNetwork.node[1].nic.mac1609_4 DroppedPacketsInMac 0
scalar highwayNetwork.node[1].nic.mac1609_4 TooLittleTime 0
scalar highwayNetwork.node[1].nic.mac1609_4 TimesIntoBackoff 98
scalar highwayNetwork.node[1].nic.mac1609_4 SlotsBackoff 166
scalar highwayNetwork.node[1].nic.mac1609_4 NumInternalContention 0
scalar highwayNetwork.node[1].nic.mac1609_4 totalBusyTime 0.226714
scalar highwayNetwork.node[1].nic.mac1609_4 retriesExceeded:count 0
attr source org_car2x_veins_modules_mac_sigRetriesExceeded
scalar highwayNetwork.node[1].nic.mac1609_4 sentAcks:count 0
attr source org_car2x_veins_modules_mac_sigSentAck
scalar highwayNetwork.node[1].nic.mac1609_4 sentPackets:count 98
attr source org_car2x_veins_modules_mac_sigSentPacket
scalar highwayNetwork.node[1].nic.mac1609_4 collisions:count 0
attr source org_car2x_veins_modules_mac_sigCollision
scalar highwayNetwork.node[1].nic.mac1609_4 channelBusy:timeavg 0.0023134081632653
attr source org_car2x_veins_modules_mac_sigChannelBusy
scalar highwayNetwork.node[1].veinsmobility startTime 4
scalar highwayNetwork.node[1].veinsmobility totalTime 97
scalar highwayNetwork.node[1].veinsmobility stopTime 102
scalar highwayNetwork.node[1].veinsmobility minSpeed 1.2953648990485
scalar highwayNetwork.node[1].veinsmobility maxSpeed 36.312511947554
scalar highwayNetwork.node[1].veinsmobility totalDistance 1960.1279920711
scalar highwayNetwork.node[1].veinsmobility totalCO2Emission 875.16381490103
scalar highwayNetwork.node[27].appl generatedWSMs 0
scalar highwayNetwork.node[27].appl receivedWSMs 0
scalar highwayNetwork.node[27].appl generatedBSMs 50
scalar highwayNetwork.node[27].appl receivedBSMs 871
scalar highwayNetwork.node[27].appl generatedWSAs 0
scalar highwayNetwork.node[27].appl receivedWSAs 0
scalar highwayNetwork.node[27].nic.phy80211p busyTime 0.0029556800000001
scalar highwayNetwork.node[27].nic.mac1609_4 ReceivedUnicastPackets 0
scalar highwayNetwork.node[27].nic.mac1609_4 ReceivedBroadcasts 871
scalar highwayNetwork.node[27].nic.mac1609_4 SentPackets 50
scalar highwayNetwork.node[27].nic.mac1609_4 SentAcknowledgements 0
scalar highwayNetwork.node[27].nic.mac1609_4 RetriesExceeded 0
scalar highwayNetwork.node[27].nic.mac1609_4 SNIRLostPackets 550
scalar highwayNetwork.node[27].nic.mac1609_4 RXTXLostPackets 0
scalar highwayNetwork.node[27].nic.mac1609_4 TotalLostPackets 550
scalar highwayNetwork.node[27].nic.mac1609_4 DroppedPacketsInMac 0
scalar highwayNetwork.node[27].nic.mac1609_4 TooLittleTime 0
scalar highwayNetwork.node[27].nic.mac1609_4 TimesIntoBackoff 50
scalar highwayNetwork.node[27].nic.mac1609_4 SlotsBackoff 67
scalar highwayNetwork.node[27].nic.mac1609_4 NumInternalContention 0
scalar highwayNetwork.node[27].nic.mac1609_4 totalBusyTime 0.153034
scalar highwayNetwork.node[27].nic.mac1609_4 retriesExceeded:count 0
attr source org_car2x_veins_modules_mac_sigRetriesExceeded
scalar highwayNetwork.node[27].nic.mac1609_4 sentAcks:count 0
attr source org_car2x_veins_modules_mac_sigSentAck
scalar highwayNetwork.node[27].nic.mac1609_4 sentPackets:count 50
attr source org_car2x_veins_modules_mac_sigSentPacket
scalar highwayNetwork.node[27].nic.mac1609_4 collisions:count 0
attr source org_car2x_veins_modules_mac_sigCollision
scalar highwayNetwork.node[27].nic.mac1609_4 channelBusy:timeavg 0.00306068
attr source org_car2x_veins_modules_mac_sigChannelBusy
scalar highwayNetwork.node[27].veinsmobility startTime 52
scalar highwayNetwork.node[27].veinsmobility totalTime 49
scalar highwayNetwork.node[27].veinsmobility stopTime 102
scalar highwayNetwork.node[27].veinsmobility minSpeed 2.0787778133594
scalar highwayNetwork.node[27].veinsmobility maxSpeed 35.495334820428
scalar highwayNetwork.node[27].veinsmobility totalDistance 985.57577211228
scalar highwayNetwork.node[27].veinsmobility totalCO2Emission 446.18006469248
scalar highwayNetwork.node[29].appl generatedWSMs 0
scalar highwayNetwork.node[29].appl receivedWSMs 0
scalar highwayNetwork.node[29].appl generatedBSMs 51
scalar highwayNetwork.node[29].appl receivedBSMs 902
scalar highwayNetwork.node[29].appl generatedWSAs 0
scalar highwayNetwork.node[29].appl receivedWSAs 0
scalar highwayNetwork.node[29].nic.phy80211p busyTime 0.0029956078431373
scalar highwayNetwork.node[29].nic.mac1609_4 ReceivedUnicastPackets 0
scalar highwayNetwork.node[29].nic.mac1609_4 ReceivedBroadcasts 902
scalar highwayNetwork.node[29].nic.mac1609_4 SentPackets 51
scalar highwayNetwork.node[29].nic.mac1609_4 SentAcknowledgements 0
scalar highwayNetwork.node[29].nic.mac1609_4 RetriesExceeded 0
scalar highwayNetwork.node[29].nic.mac1609_4 SNIRLostPackets 567
scalar highwayNetwork.node[29].nic.mac1609_4 RXTXLostPackets 0
scalar highwayNetwork.node[29].nic.mac1609_4 TotalLostPackets 567
scalar highwayNetwork.node[29].nic.mac1609_4 DroppedPacketsInMac 0
scalar highwayNetwork.node[29].nic.mac1609_4 TooLittleTime 0
scalar highwayNetwork.node[29].nic.mac1609_4 TimesIntoBackoff 51
scalar highwayNetwork.node[29].nic.mac1609_4 SlotsBackoff 83
scalar highwayNetwork.node[29].nic.mac1609_4 NumInternalContention 0
scalar highwayNetwork.node[29].nic.mac1609_4 totalBusyTime 0.158131
scalar highwayNetwork.node[29].nic.mac1609_4 retriesExceeded:count 0
attr source org_car2x_veins_modules_mac_sigRetriesExceeded
scalar highwayNetwork.node[29].nic.mac1609_4 sentAcks:count 0
attr source org_car2x_veins_modules_mac_sigSentAck
scalar highwayNetwork.node[29].nic.mac1609_4 sentPackets:count 51
attr source org_car2x_veins_modules_mac_sigSentPacket
scalar highwayNetwork.node[29].nic.mac1609_4 collisions:count 0
attr source org_car2x_veins_modules_mac_sigCollision
scalar highwayNetwork.node[29].nic.mac1609_4 channelBusy:timeavg 0.0031006078431373
attr source org_car2x_veins_modules_mac_sigChannelBusy
scalar highwayNetwork.node[29].veinsmobility startTime 55
scalar highwayNetwork.node[29].veinsmobility totalTime 50
scalar highwayNetwork.node[29].veinsmobility stopTime 106
scalar highwayNetwork.node[29].veinsmobility minSpeed 2.1888117324275
scalar highwayNetwork.node[29].veinsmobility maxSpeed 37.21911022779
scalar highwayNetwork.node[29].veinsmobility totalDistance 977.49263780374
scalar highwayNetwork.node[29].veinsmobility totalCO2Emission 490.22935943764
scalar highwayNetwork.node[2].appl generatedWSMs 0
scalar highwayNetwork.node[2].appl receivedWSMs 0
scalar highwayNetwork.node[2].appl generatedBSMs 101
scalar highwayNetwork.node[2].appl receivedBSMs 1370
scalar highwayNetwork.node[2].appl generatedWSAs 0
scalar highwayNetwork.node[2].appl receivedWSAs 0
scalar highwayNetwork.node[2].nic.phy80211p busyTime 0.0023240396039604
scalar highwayNetwork.node[2].nic.mac1609_4 ReceivedUnicastPackets 0
scalar highwayNetwork.node[2].nic.mac1609_4 ReceivedBroadcasts 1370
scalar highwayNetwork.node[2].nic.mac1609_4 SentPackets 101
scalar highwayNetwork.node[2].nic.mac1609_4 SentAcknowledgements 0
scalar highwayNetwork.node[2].nic.mac1609_4 RetriesExceeded 0
scalar highwayNetwork.node[2].nic.mac1609_4 SNIRLostPackets 887
scalar highwayNetwork.node[2].nic.mac1609_4 RXTXLostPackets 0
scalar highwayNetwork.node[2].nic.mac1609_4 TotalLostPackets 887
scalar highwayNetwork.node[2].nic.mac1609_4 DroppedPacketsInMac 0
scalar highwayNetwork.node[2].nic.mac1609_4 TooLittleTime 0
scalar highwayNetwork.node[2].nic.mac1609_4 TimesIntoBackoff 101
scalar highwayNetwork.node[2].nic.mac1609_4 SlotsBackoff 149
scalar highwayNetwork.node[2].nic.mac1609_4 NumInternalContention 0
scalar highwayNetwork.node[2].nic.mac1609_4 totalBusyTime 0.245333
scalar highwayNetwork.node[2].nic.mac1609_4 retriesExceeded:count 0
attr source org_car2x_veins_modules_mac_sigRetriesExceeded
scalar highwayNetwork.node[2].nic.mac1609_4 sentAcks:count 0
attr source org_car2x_veins_modules_mac_sigSentAck
scalar highwayNetwork.node[2].nic.mac1609_4 sentPackets:count 101
attr source org_car2x_veins_modules_mac_sigSentPacket
scalar highwayNetwork.node[2].nic.mac1609_4 collisions:count 0
attr source org_car2x_veins_modules_mac_sigCollision
scalar highwayNetwork.node[2].nic.mac1609_4 channelBusy:timeavg 0.0024290396039604
attr source org_car2x_veins_modules_mac_sigChannelBusy
scalar highwayNetwork.node[2].veinsmobility startTime 7
scalar highwayNetwork.node[2].veinsmobility totalTime 100
scalar highwayNetwork.node[2].veinsmobility stopTime 108
scalar highwayNetwork.node[2].veinsmobility minSpeed 2.4706868049456
scalar highwayNetwork.node[2].veinsmobility maxSpeed 35.399988127762
scalar highwayNetwork.node[2].veinsmobility totalDistance 1966.1814588487
scalar highwayNetwork.node[2].veinsmobility totalCO2Emission 854.39570047558
scalar highwayNetwork.node[4].appl generatedWSMs 0
scalar highwayNetwork.node[4].appl receivedWSMs 0
scalar highwayNetwork.node[4].appl generatedBSMs 102
scalar highwayNetwork.node[4].appl receivedBSMs 1484
scalar highwayNetwork.node[4].appl generatedWSAs 0
scalar highwayNetwork.node[4].appl receivedWSAs 0
scalar highwayNetwork.node[4].nic.phy80211p busyTime 0.002414431372549
scalar highwayNetwork.node[4].nic.mac1609_4 ReceivedUnicastPackets 0
scalar highwayNetwork.node[4].nic.mac1609_4 ReceivedBroadcasts 1484
scalar highwayNetwork.node[4].nic.mac1609_4 SentPackets 102
scalar highwayNetwork.node[4].nic.mac1609_4 SentAcknowledgements 0
scalar highwayNetwork.node[4].nic.mac1609_4 RetriesExceeded 0
scalar highwayNetwork.node[4].nic.mac1609_4 SNIRLostPackets 884
scalar highwayNetwork.node[4].nic.mac1609_4 RXTXLostPackets 0
scalar highwayNetwork.node[4].nic.mac1609_4 TotalLostPackets 884
scalar highwayNetwork.node[4].nic.mac1609_4 DroppedPacketsInMac 0
scalar highwayNetwork.node[4].nic.mac1609_4 TooLittleTime 0
scalar highwayNetwork.node[4].nic.mac1609_4 TimesIntoBackoff 102
scalar highwayNetwork.node[4].nic.mac1609_4 SlotsBackoff 160
scalar highwayNetwork.node[4].nic.mac1609_4 NumInternalContention 0
scalar highwayNetwork.node[4].nic.mac1609_4 totalBusyTime 0.256982
scalar highwayNetwork.node[4].nic.mac1609_4 retriesExceeded:count 0
attr source org_car2x_veins_modules_mac_sigRetriesExceeded
scalar highwayNetwork.node[4].nic.mac1609_4 sentAcks:count 0
attr source org_car2x_veins_modules_mac_sigSentAck
scalar highwayNetwork.node[4].nic.mac1609_4 sentPackets:count 102
attr source org_car2x_veins_modules_mac_sigSentPacket
scalar highwayNetwork.node[4].nic.mac1609_4 collisions:count 0
attr source org_car2x_veins_modules_mac_sigCollision
scalar highwayNetwork.node[4].nic.mac1609_4 channelBusy:timeavg 0.002519431372549
attr source org_car2x_veins_modules_mac_sigChannelBusy
scalar highwayNetwork.node[4].veinsmobility startTime 10
scalar highwayNetwork.node[4].veinsmobility totalTime 101
scalar highwayNetwork.node[4].veinsmobility stopTime 112
scalar highwayNetwork.node[4].veinsmobility minSpeed 1.6184831429971
scalar highwayNetwork.node[4].veinsmobility maxSpeed 34.999184307838
scalar highwayNetwork.node[4].veinsmobility totalDistance 1960.8421060844
scalar highwayNetwork.node[4].veinsmobility totalCO2Emission 822.18015623148
scalar highwayNetwork.node[32].appl generatedWSMs 0
scalar highwayNetwork.node[32].appl receivedWSMs 0
scalar highwayNetwork.node[32].appl generatedBSMs 51
scalar highwayNetwork.node[32].appl receivedBSMs 907
scalar highwayNetwork.node[32].appl generatedWSAs 0
scalar highwayNetwork.node[32].appl receivedWSAs 0
scalar highwayNetwork.node[32].nic.phy80211p busyTime 0.0030506666666667
scalar highwayNetwork.node[32].nic.mac1609_4 ReceivedUnicastPackets 0
scalar highwayNetwork.node[32].nic.mac1609_4 ReceivedBroadcasts 907
scalar highwayNetwork.node[32].nic.mac1609_4 SentPackets 51
scalar highwayNetwork.node[32].nic.mac1609_4 SentAcknowledgements 0
scalar highwayNetwork.node[32].nic.mac1609_4 RetriesExceeded 0
scalar highwayNetwork.node[32].nic.mac1609_4 SNIRLostPackets 589
scalar highwayNetwork.node[32].nic.mac1609_4 RXTXLostPackets 0
scalar highwayNetwork.node[32].nic.mac1609_4 TotalLostPackets 589
scalar highwayNetwork.node[32].nic.mac1609_4 DroppedPacketsInMac 0
scalar highwayNetwork.node[32].nic.mac1609_4 TooLittleTime 0
scalar highwayNetwork.node[32].nic.mac1609_4 TimesIntoBackoff 51
scalar highwayNetwork.node[32].nic.mac1609_4 SlotsBackoff 66
scalar highwayNetwork.node[32].nic.mac1609_4 NumInternalContention 0
scalar highwayNetwork.node[32].nic.mac1609_4 totalBusyTime 0.160939
scalar highwayNetwork.node[32].nic.mac1609_4 retriesExceeded:count 0
attr source org_car2x_veins_modules_mac_sigRetriesExceeded
scalar highwayNetwork.node[32].nic.mac1609_4 sentAcks:count 0
attr source org_car2x_veins_modules_mac_sigSentAck
scalar highwayNetwork.node[32].nic.mac1609_4 sentPackets:count 51
attr source org_car2x_veins_modules_mac_sigSentPacket
scalar highwayNetwork.node[32].nic.mac1609_4 collisions:count 0
attr source org_car2x_veins_modules_mac_sigCollision
scalar highwayNetwork.node[32].nic.mac1609_4 channelBusy:timeavg 0.0031556666666667
attr source org_car2x_veins_modules_mac_sigChannelBusy
scalar highwayNetwork.node[32].veinsmobility startTime 61
scalar highwayNetwork.node[32].veinsmobility totalTime 50
scalar highwayNetwork.node[32].veinsmobility stopTime 112
scalar highwayNetwork.node[32].veinsmobility minSpeed 2.4100788243115
scalar highwayNetwork.node[32].veinsmobility maxSpeed 35.791313728114
scalar highwayNetwork.node[32].veinsmobility totalDistance 980.62167554145
scalar highwayNetwork.node[32].veinsmobility totalCO2Emission 461.63626148637
scalar highwayNetwork.node[9].appl generatedWSMs 0
scalar highwayNetwork.node[9].appl receivedWSMs 0
scalar highwayNetwork.node[9].appl generatedBSMs 98
scalar highwayNetwork.node[9].appl receivedBSMs 1522
scalar highwayNetwork.node[9].appl generatedWSAs 0
scalar highwayNetwork.node[9].appl receivedWSAs 0
scalar highwayNetwork.node[9].nic.phy80211p busyTime 0.0025384489795918
scalar highwayNetwork.node[9].nic.mac1609_4 ReceivedUnicastPackets 0
scalar highwayNetwork.node[9].nic.mac1609_4 ReceivedBroadcasts 1522
scalar highwayNetwork.node[9].nic.mac1609_4 SentPackets 98
scalar highwayNetwork.node[9].nic.mac1609_4 SentAcknowledgements 0
scalar highwayNetwork.node[9].nic.mac1609_4 RetriesExceeded 0
scalar highwayNetwork.node[9].nic.mac1609_4 SNIRLostPackets 870
scalar highwayNetwork.node[9].nic.mac1609_4 RXTXLostPackets 0
scalar highwayNetwork.node[9].nic.mac1609_4 TotalLostPackets 870
scalar highwayNetwork.node[9].nic.mac1609_4 DroppedPacketsInMac 0
scalar highwayNetwork.node[9].nic.mac1609_4 TooLittleTime 0
scalar highwayNetwork.node[9].nic.mac1609_4 TimesIntoBackoff 98
scalar highwayNetwork.node[9].nic.mac1609_4 SlotsBackoff 131
scalar highwayNetwork.node[9].nic.mac1609_4 NumInternalContention 0
scalar highwayNetwork.node[9].nic.mac1609_4 totalBusyTime 0.259058
scalar highwayNetwork.node[9].nic.mac1609_4 retriesExceeded:count 0
attr source org_car2x_veins_modules_mac_sigRetriesExceeded
scalar highwayNetwork.node[9].nic.mac1609_4 sentAcks:count 0
attr source org_car2x_veins_modules_mac_sigSentAck
scalar highwayNetwork.node[9].nic.mac1609_4 sentPackets:count 98
attr source org_car2x_veins_modules_mac_sigSentPacket
scalar highwayNetwork.node[9].nic.mac1609_4 collisions:count 0
attr source org_car2x_veins_modules_mac_sigCollision
scalar highwayNetwork.node[9].nic.mac1609_4 channelBusy:timeavg 0.0026434489795918
attr source org_car2x_veins_modules_mac_sigChannelBusy
scalar highwayNetwork.node[9].veinsmobility startTime 16
scalar highwayNetwork.node[9].veinsmobility totalTime 97
scalar highwayNetwork.node[9].veinsmobility stopTime 114
scalar highwayNetwork.node[9].veinsmobility minSpeed 1.8967820865102
scalar highwayNetwork.node[9].veinsmobility maxSpeed 35.153187671969
scalar highwayNetwork.node[9].veinsmobility totalDistance 1969.716402766
scalar highwayNetwork.node[9].veinsmobility totalCO2Emission 875.01057341494
scalar highwayNetwork.node[45].appl generatedWSMs 0
scalar highwayNetwork.node[45].appl receivedWSMs 0
scalar highwayNetwork.node[45].appl generatedBSMs 26
scalar highwayNetwork.node[45].appl receivedBSMs 489
scalar highwayNetwork.node[45].appl generatedWSAs 0
scalar highwayNetwork.node[45].appl receivedWSAs 0
scalar highwayNetwork.node[45].nic.phy80211p busyTime 0.00312
scalar highwayNetwork.node[45].nic.mac1609_4 ReceivedUnicastPackets 0
scalar highwayNetwork.node[45].nic.mac1609_4 ReceivedBroadcasts 489
scalar highwayNetwork.node[45].nic.mac1609_4 SentPackets 26
scalar highwayNetwork.node[45].nic.mac1609_4 SentAcknowledgements 0
scalar highwayNetwork.node[45].nic.mac1609_4 RetriesExceeded 0
scalar highwayNetwork.node[45].nic.mac1609_4 SNIRLostPackets 291
scalar highwayNetwork.node[45].nic.mac1609_4 RXTXLostPackets 0
scalar highwayNetwork.node[45].nic.mac1609_4 TotalLostPackets 291
scalar highwayNetwork.node[45].nic.mac1609_4 DroppedPacketsInMac 0
scalar highwayNetwork.node[45].nic.mac1609_4 TooLittleTime 0
scalar highwayNetwork.node[45].nic.mac1609_4 TimesIntoBackoff 26
scalar highwayNetwork.node[45].nic.mac1609_4 SlotsBackoff 29
scalar highwayNetwork.node[45].nic.mac1609_4 NumInternalContention 0
scalar highwayNetwork.node[45].nic.mac1609_4 totalBusyTime 0.08385
scalar highwayNetwork.node[45].nic.mac1609_4 retriesExceeded:count 0
attr source org_car2x_veins_modules_mac_sigRetriesExceeded
scalar highwayNetwork.node[45].nic.mac1609_4 sentAcks:count 0
attr source org_car2x_veins_modules_mac_sigSentAck
scalar highwayNetwork.node[45].nic.mac1609_4 sentPackets:count 26
attr source org_car2x_veins_modules_mac_sigSentPacket
scalar highwayNetwork.node[45].nic.mac1609_4 collisions:count 0
attr source org_car2x_veins_modules_mac_sigCollision
scalar highwayNetwork.node[45].nic.mac1609_4 channelBusy:timeavg 0.003225
attr source org_car2x_veins_modules_mac_sigChannelBusy
scalar highwayNetwork.node[45].veinsmobility startTime 88
scalar highwayNetwork.node[45].veinsmobility totalTime 25
scalar highwayNetwork.node[45].veinsmobility stopTime 114
scalar highwayNetwork.node[45].veinsmobility minSpeed 2.115018884954
scalar highwayNetwork.node[45].veinsmobility maxSpeed 30.771503566467
scalar highwayNetwork.node[45].veinsmobility totalDistance 486.95282104786
scalar highwayNetwork.node[45].veinsmobility totalCO2Emission 193.41819558503
scalar highwayNetwork.node[48].appl generatedWSMs 0
scalar highwayNetwork.node[48].appl receivedWSMs 0
scalar highwayNetwork.node[48].appl generatedBSMs 28
scalar highwayNetwork.node[48].appl receivedBSMs 518
scalar highwayNetwork.node[48].appl generatedWSAs 0
scalar highwayNetwork.node[48].appl receivedWSAs 0
scalar highwayNetwork.node[48].nic.phy80211p busyTime 0.0031051428571429
scalar highwayNetwork.node[48].nic.mac1609_4 ReceivedUnicastPackets 0
scalar highwayNetwork.node[48].nic.mac1609_4 ReceivedBroadcasts 518
scalar highwayNetwork.node[48].nic.mac1609_4 SentPackets 28
scalar highwayNetwork.node[48].nic.mac1609_4 SentAcknowledgements 0
scalar highwayNetwork.node[48].nic.mac1609_4 RetriesExceeded 0
scalar highwayNetwork.node[48].nic.mac1609_4 SNIRLostPackets 318
scalar highwayNetwork.node[48].nic.mac1609_4 RXTXLostPackets 0
scalar highwayNetwork.node[48].nic.mac1609_4 TotalLostPackets 318
scalar highwayNetwork.node[48].nic.mac1609_4 DroppedPacketsInMac 0
scalar highwayNetwork.node[48].nic.mac1609_4 TooLittleTime 0
scalar highwayNetwork.node[48].nic.mac1609_4 TimesIntoBackoff 28
scalar highwayNetwork.node[48].nic.mac1609_4 SlotsBackoff 48
scalar highwayNetwork.node[48].nic.mac1609_4 NumInternalContention 0
scalar highwayNetwork.node[48].nic.mac1609_4 totalBusyTime 0.089884
scalar highwayNetwork.node[48].nic.mac1609_4 retriesExceeded:count 0
attr source org_car2x_veins_modules_mac_sigRetriesExceeded
scalar highwayNetwork.node[48].nic.mac1609_4 sentAcks:count 0
attr source org_car2x_veins_modules_mac_sigSentAck
scalar highwayNetwork.node[48].nic.mac1609_4 sentPackets:count 28
attr source org_car2x_veins_modules_mac_sigSentPacket
scalar highwayNetwork.node[48].nic.mac1609_4 collisions:count 0
attr source org_car2x_veins_modules_mac_sigCollision
scalar highwayNetwork.node[48].nic.mac1609_4 channelBusy:timeavg 0.0032101428571429
attr source org_car2x_veins_modules_mac_sigChannelBusy
scalar highwayNetwork.node[48].veinsmobility startTime 91
scalar highwayNetwork.node[48].veinsmobility totalTime 27
scalar highwayNetwork.node[48].veinsmobility stopTime 119
scalar highwayNetwork.node[48].veinsmobility minSpeed 1.5146571290214
scalar highwayNetwork.node[48].veinsmobility maxSpeed 33.527433863912
scalar highwayNetwork.node[48].veinsmobility totalDistance 485.32254458453
scalar highwayNetwork.node[48].veinsmobility totalCO2Emission 207.88398016903
scalar highwayNetwork.node[14].appl generatedWSMs 0
scalar highwayNetwork.node[14].appl receivedWSMs 0
scalar highwayNetwork.node[14].appl generatedBSMs 98
scalar highwayNetwork.node[14].appl receivedBSMs 1560
scalar highwayNetwork.node[14].appl generatedWSAs 0
scalar highwayNetwork.node[14].appl receivedWSAs 0
scalar highwayNetwork.node[14].nic.phy80211p busyTime 0.0026509387755102
scalar highwayNetwork.node[14].nic.mac1609_4 ReceivedUnicastPackets 0
scalar highwayNetwork.node[14].nic.mac1609_4 ReceivedBroadcasts 1560
scalar highwayNetwork.node[14].nic.mac1609_4 SentPackets 98
scalar highwayNetwork.node[14].nic.mac1609_4 SentAcknowledgements 0
scalar highwayNetwork.node[14].nic.mac1609_4 RetriesExceeded 0
scalar highwayNetwork.node[14].nic.mac1609_4 SNIRLostPackets 938
scalar highwayNetwork.node[14].nic.mac1609_4 RXTXLostPackets 0
scalar highwayNetwork.node[14].nic.mac1609_4 TotalLostPackets 938
scalar highwayNetwork.node[14].nic.mac1609_4 DroppedPacketsInMac 0
scalar highwayNetwork.node[14].nic.mac1609_4 TooLittleTime 0
scalar highwayNetwork.node[14].nic.mac1609_4 TimesIntoBackoff 98
scalar highwayNetwork.node[14].nic.mac1609_4 SlotsBackoff 146
scalar highwayNetwork.node[14].nic.mac1609_4 NumInternalContention 0
scalar highwayNetwork.node[14].nic.mac1609_4 totalBusyTime 0.270082
scalar highwayNetwork.node[14].nic.mac1609_4 retriesExceeded:count 0
attr source org_car2x_veins_modules_mac_sigRetriesExceeded
scalar highwayNetwork.node[14].nic.mac1609_4 sentAcks:count 0
attr source org_car2x_veins_modules_mac_sigSentAck
scalar highwayNetwork.node[14].nic.mac1609_4 sentPackets:count 98
attr source org_car2x_veins_modules_mac_sigSentPacket
scalar highwayNetwork.node[14].nic.mac1609_4 collisions:count 0
attr source org_car2x_veins_modules_mac_sigCollision
scalar highwayNetwork.node[14].nic.mac1609_4 channelBusy:timeavg 0.0027559387755101
attr source org_car2x_veins_modules_mac_sigChannelBusy
scalar highwayNetwork.node[14].veinsmobility startTime 22
scalar highwayNetwork.node[14].veinsmobility totalTime 97
scalar highwayNetwork.node[14].veinsmobility stopTime 120
scalar highwayNetwork.node[14].veinsmobility minSpeed 1.3945745720761
scalar highwayNetwork.node[14].veinsmobility maxSpeed 36.036272129674
scalar highwayNetwork.node[14].veinsmobility totalDistance 1966.8981351586
scalar highwayNetwork.node[14].veinsmobility totalCO2Emission 848.23822186221
scalar highwayNetwork.node[24].appl generatedWSMs 0
scalar highwayNetwork.node[24].appl receivedWSMs 0
scalar highwayNetwork.node[24].appl generatedBSMs 76
scalar highwayNetwork.node[24].appl receivedBSMs 1351
scalar highwayNetwork.node[24].appl generatedWSAs 0
scalar highwayNetwork.node[24].appl receivedWSAs 0
scalar highwayNetwork.node[24].nic.phy80211p busyTime 0.0029147368421052
scalar highwayNetwork.node[24].nic.mac1609_4 ReceivedUnicastPackets 0
scalar highwayNetwork.node[24].nic.mac1609_4 ReceivedBroadcasts 1351
scalar highwayNetwork.node[24].nic.mac1609_4 SentPackets 76
scalar highwayNetwork.node[24].nic.mac1609_4 SentAcknowledgements 0
scalar highwayNetwork.node[24].nic.mac1609_4 RetriesExceeded 0
scalar highwayNetwork.node[24].nic.mac1609_4 SNIRLostPackets 779
scalar highwayNetwork.node[24].nic.mac1609_4 RXTXLostPackets 0
scalar highwayNetwork.node[24].nic.mac1609_4 TotalLostPackets 779
scalar highwayNetwork.node[24].nic.mac1609_4 DroppedPacketsInMac 0
scalar highwayNetwork.node[24].nic.mac1609_4 TooLittleTime 0
scalar highwayNetwork.node[24].nic.mac1609_4 TimesIntoBackoff 76
scalar highwayNetwork.node[24].nic.mac1609_4 SlotsBackoff 98
scalar highwayNetwork.node[24].nic.mac1609_4 NumInternalContention 0
scalar highwayNetwork.node[24].nic.mac1609_4 totalBusyTime 0.2295
scalar highwayNetwork.node[24].nic.mac1609_4 retriesExceeded:count 0
attr source org_car2x_veins_modules_mac_sigRetriesExceeded
scalar highwayNetwork.node[24].nic.mac1609_4 sentAcks:count 0
attr source org_car2x_veins_modules_mac_sigSentAck
scalar highwayNetwork.node[24].nic.mac1609_4 sentPackets:count 76
attr source org_car2x_veins_modules_mac_sigSentPacket
scalar highwayNetwork.node[24].nic.mac1609_4 collisions:count 0
attr source org_car2x_veins_modules_mac_sigCollision
scalar highwayNetwork.node[24].nic.mac1609_4 channelBusy:timeavg 0.0030197368421052
attr source org_car2x_veins_modules_mac_sigChannelBusy
scalar highwayNetwork.node[24].veinsmobility startTime 46
scalar highwayNetwork.node[24].veinsmobility totalTime 75
scalar highwayNetwork.node[24].veinsmobility stopTime 122
scalar highwayNetwork.node[24].veinsmobility minSpeed 1.4189438254572
scalar highwayNetwork.node[24].veinsmobility maxSpeed 34.834732002943
scalar highwayNetwork.node[24].veinsmobility totalDistance 1455.5779356602
scalar highwayNetwork.node[24].veinsmobility totalCO2Emission 683.29761625634
scalar highwayNetwork.node[36].appl generatedWSMs 0
scalar highwayNetwork.node[36].appl receivedWSMs 0
scalar highwayNetwork.node[36].appl generatedBSMs 52
scalar highwayNetwork.node[36].appl receivedBSMs 921
scalar highwayNetwork.node[36].appl generatedWSAs 0
scalar highwayNetwork.node[36].appl receivedWSAs 0
scalar highwayNetwork.node[36].nic.phy80211p busyTime 0.003046
scalar highwayNetwork.node[36].nic.mac1609_4 ReceivedUnicastPackets 0
scalar highwayNetwork.node[36].nic.mac1609_4 ReceivedBroadcasts 921
scalar highwayNetwork.node[36].nic.mac1609_4 SentPackets 52
scalar highwayNetwork.node[36].nic.mac1609_4 SentAcknowledgements 0
scalar highwayNetwork.node[36].nic.mac1609_4 RetriesExceeded 0
scalar highwayNetwork.node[36].nic.mac1609_4 SNIRLostPackets 602
scalar highwayNetwork.node[36].nic.mac1609_4 RXTXLostPackets 0
scalar highwayNetwork.node[36].nic.mac1609_4 TotalLostPackets 602
scalar highwayNetwork.node[36].nic.mac1609_4 DroppedPacketsInMac 0
scalar highwayNetwork.node[36].nic.mac1609_4 TooLittleTime 0
scalar highwayNetwork.node[36].nic.mac1609_4 TimesIntoBackoff 52
scalar highwayNetwork.node[36].nic.mac1609_4 SlotsBackoff 73
scalar highwayNetwork.node[36].nic.mac1609_4 NumInternalContention 0
scalar highwayNetwork.node[36].nic.mac1609_4 totalBusyTime 0.163852
scalar highwayNetwork.node[36].nic.mac1609_4 retriesExceeded:count 0
attr source org_car2x_veins_modules_mac_sigRetriesExceeded
scalar highwayNetwork.node[36].nic.mac1609_4 sentAcks:count 0
attr source org_car2x_veins_modules_mac_sigSentAck
scalar highwayNetwork.node[36].nic.mac1609_4 sentPackets:count 52
attr source org_car2x_veins_modules_mac_sigSentPacket
scalar highwayNetwork.node[36].nic.mac1609_4 collisions:count 0
attr source org_car2x_veins_modules_mac_sigCollision
scalar highwayNetwork.node[36].nic.mac1609_4 channelBusy:timeavg 0.003151
attr source org_car2x_veins_modules_mac_sigChannelBusy
scalar highwayNetwork.node[36].veinsmobility startTime 70
scalar highwayNetwork.node[36].veinsmobility totalTime 51
scalar highwayNetwork.node[36].veinsmobility stopTime 122
scalar highwayNetwork.node[36].veinsmobility minSpeed 1.4157621443039
scalar highwayNetwork.node[36].veinsmobility maxSpeed 35.65309596812
scalar highwayNetwork.node[36].veinsmobility totalDistance 983.33062540191
scalar highwayNetwork.node[36].veinsmobility totalCO2Emission 443.90106343685
scalar highwayNetwork.node[17].appl generatedWSMs 0
scalar highwayNetwork.node[17].appl receivedWSMs 0
scalar highwayNetwork.node[17].appl generatedBSMs 96
scalar highwayNetwork.node[17].appl receivedBSMs 1550
scalar highwayNetwork.node[17].appl generatedWSAs 0
scalar highwayNetwork.node[17].appl receivedWSAs 0
scalar highwayNetwork.node[17].nic.phy80211p busyTime 0.0027267499999999
scalar highwayNetwork.node[17].nic.mac1609_4 ReceivedUnicastPackets 0
scalar highwayNetwork.node[17].nic.mac1609_4 ReceivedBroadcasts 1550
scalar highwayNetwork.node[17].nic.mac1609_4 SentPackets 96
scalar highwayNetwork.node[17].nic.mac1609_4 SentAcknowledgements 0
scalar highwayNetwork.node[17].nic.mac1609_4 RetriesExceeded 0
scalar highwayNetwork.node[17].nic.mac1609_4 SNIRLostPackets 967
scalar highwayNetwork.node[17].nic.mac1609_4 RXTXLostPackets 0
scalar highwayNetwork.node[17].nic.mac1609_4 TotalLostPackets 967
scalar highwayNetwork.node[17].nic.mac1609_4 DroppedPacketsInMac 0
scalar highwayNetwork.node[17].nic.mac1609_4 TooLittleTime 0
scalar highwayNetwork.node[17].nic.mac1609_4 TimesIntoBackoff 96
scalar highwayNetwork.node[17].nic.mac1609_4 SlotsBackoff 144
scalar highwayNetwork.node[17].nic.mac1609_4 NumInternalContention 0
scalar highwayNetwork.node[17].nic.mac1609_4 totalBusyTime 0.271848
scalar highwayNetwork.node[17].nic.mac1609_4 retriesExceeded:count 0
attr source org_car2x_veins_modules_mac_sigRetriesExceeded
scalar highwayNetwork.node[17].nic.mac1609_4 sentAcks:count 0
attr source org_car2x_veins_modules_mac_sigSentAck
scalar highwayNetwork.node[17].nic.mac1609_4 sentPackets:count 96
attr source org_car2x_veins_modules_mac_sigSentPacket
scalar highwayNetwork.node[17].nic.mac1609_4 collisions:count 0
attr source org_car2x_veins_modules_mac_sigCollision
scalar highwayNetwork.node[17].nic.mac1609_4 channelBusy:timeavg 0.0028317499999999
attr source org_car2x_veins_modules_mac_sigChannelBusy
scalar highwayNetwork.node[17].veinsmobility startTime 28
[...]
attr source org_car2x_veins_modules_mac_sigChannelBusy
scalar highwayNetwork.node[165].veinsmobility startTime 332
scalar highwayNetwork.node[165].veinsmobility totalTime 38
scalar highwayNetwork.node[165].veinsmobility stopTime 370.03401392529
scalar highwayNetwork.node[165].veinsmobility minSpeed 2.307191847288
scalar highwayNetwork.node[165].veinsmobility maxSpeed 34.919147709408
scalar highwayNetwork.node[165].veinsmobility totalDistance 652.7534685522
scalar highwayNetwork.node[165].veinsmobility totalCO2Emission 312.11500883267
scalar highwayNetwork.node[166].appl generatedWSMs 0
scalar highwayNetwork.node[166].appl receivedWSMs 0
scalar highwayNetwork.node[166].appl generatedBSMs 36
scalar highwayNetwork.node[166].appl receivedBSMs 683
scalar highwayNetwork.node[166].appl generatedWSAs 0
scalar highwayNetwork.node[166].appl receivedWSAs 0
scalar highwayNetwork.node[166].nic.phy80211p busyTime 0.002867613177703
scalar highwayNetwork.node[166].nic.mac1609_4 ReceivedUnicastPackets 0
scalar highwayNetwork.node[166].nic.mac1609_4 ReceivedBroadcasts 683
scalar highwayNetwork.node[166].nic.mac1609_4 SentPackets 36
scalar highwayNetwork.node[166].nic.mac1609_4 SentAcknowledgements 0
scalar highwayNetwork.node[166].nic.mac1609_4 RetriesExceeded 0
scalar highwayNetwork.node[166].nic.mac1609_4 SNIRLostPackets 283
scalar highwayNetwork.node[166].nic.mac1609_4 RXTXLostPackets 0
scalar highwayNetwork.node[166].nic.mac1609_4 TotalLostPackets 283
scalar highwayNetwork.node[166].nic.mac1609_4 DroppedPacketsInMac 0
scalar highwayNetwork.node[166].nic.mac1609_4 TooLittleTime 0
scalar highwayNetwork.node[166].nic.mac1609_4 TimesIntoBackoff 35
scalar highwayNetwork.node[166].nic.mac1609_4 SlotsBackoff 62
scalar highwayNetwork.node[166].nic.mac1609_4 NumInternalContention 0
scalar highwayNetwork.node[166].nic.mac1609_4 totalBusyTime 0.104139
scalar highwayNetwork.node[166].nic.mac1609_4 retriesExceeded:count 0
attr source org_car2x_veins_modules_mac_sigRetriesExceeded
scalar highwayNetwork.node[166].nic.mac1609_4 sentAcks:count 0
attr source org_car2x_veins_modules_mac_sigSentAck
scalar highwayNetwork.node[166].nic.mac1609_4 sentPackets:count 36
attr source org_car2x_veins_modules_mac_sigSentPacket
scalar highwayNetwork.node[166].nic.mac1609_4 collisions:count 0
attr source org_car2x_veins_modules_mac_sigCollision
scalar highwayNetwork.node[166].nic.mac1609_4 channelBusy:timeavg 0.002972591799189
attr source org_car2x_veins_modules_mac_sigChannelBusy
scalar highwayNetwork.node[166].veinsmobility startTime 335
scalar highwayNetwork.node[166].veinsmobility totalTime 35
scalar highwayNetwork.node[166].veinsmobility stopTime 370.03401392529
scalar highwayNetwork.node[166].veinsmobility minSpeed 1.3247789877467
scalar highwayNetwork.node[166].veinsmobility maxSpeed 36.112661340646
scalar highwayNetwork.node[166].veinsmobility totalDistance 587.68998360344
scalar highwayNetwork.node[166].veinsmobility totalCO2Emission 289.65408676897
scalar highwayNetwork.node[167].appl generatedWSMs 0
scalar highwayNetwork.node[167].appl receivedWSMs 0
scalar highwayNetwork.node[167].appl generatedBSMs 34
scalar highwayNetwork.node[167].appl receivedBSMs 425
scalar highwayNetwork.node[167].appl generatedWSAs 0
scalar highwayNetwork.node[167].appl receivedWSAs 0
scalar highwayNetwork.node[167].nic.phy80211p busyTime 0.0028632532211424
scalar highwayNetwork.node[167].nic.mac1609_4 ReceivedUnicastPackets 0
scalar highwayNetwork.node[167].nic.mac1609_4 ReceivedBroadcasts 425
scalar highwayNetwork.node[167].nic.mac1609_4 SentPackets 34
scalar highwayNetwork.node[167].nic.mac1609_4 SentAcknowledgements 0
scalar highwayNetwork.node[167].nic.mac1609_4 RetriesExceeded 0
scalar highwayNetwork.node[167].nic.mac1609_4 SNIRLostPackets 512
scalar highwayNetwork.node[167].nic.mac1609_4 RXTXLostPackets 0
scalar highwayNetwork.node[167].nic.mac1609_4 TotalLostPackets 512
scalar highwayNetwork.node[167].nic.mac1609_4 DroppedPacketsInMac 0
scalar highwayNetwork.node[167].nic.mac1609_4 TooLittleTime 0
scalar highwayNetwork.node[167].nic.mac1609_4 TimesIntoBackoff 34
scalar highwayNetwork.node[167].nic.mac1609_4 SlotsBackoff 52
scalar highwayNetwork.node[167].nic.mac1609_4 NumInternalContention 0
scalar highwayNetwork.node[167].nic.mac1609_4 totalBusyTime 0.101018
scalar highwayNetwork.node[167].nic.mac1609_4 retriesExceeded:count 0
attr source org_car2x_veins_modules_mac_sigRetriesExceeded
scalar highwayNetwork.node[167].nic.mac1609_4 sentAcks:count 0
attr source org_car2x_veins_modules_mac_sigSentAck
scalar highwayNetwork.node[167].nic.mac1609_4 sentPackets:count 34
attr source org_car2x_veins_modules_mac_sigSentPacket
scalar highwayNetwork.node[167].nic.mac1609_4 collisions:count 0
attr source org_car2x_veins_modules_mac_sigCollision
scalar highwayNetwork.node[167].nic.mac1609_4 channelBusy:timeavg 0.0029681482831188
attr source org_car2x_veins_modules_mac_sigChannelBusy
scalar highwayNetwork.node[167].veinsmobility startTime 336
scalar highwayNetwork.node[167].veinsmobility totalTime 34
scalar highwayNetwork.node[167].veinsmobility stopTime 370.03401392529
scalar highwayNetwork.node[167].veinsmobility minSpeed 4.5521797035843
scalar highwayNetwork.node[167].veinsmobility maxSpeed 35.652598560515
scalar highwayNetwork.node[167].veinsmobility totalDistance 637.91653684944
scalar highwayNetwork.node[167].veinsmobility totalCO2Emission 289.39214814914
scalar highwayNetwork.node[168].appl generatedWSMs 0
scalar highwayNetwork.node[168].appl receivedWSMs 0
scalar highwayNetwork.node[168].appl generatedBSMs 33
scalar highwayNetwork.node[168].appl receivedBSMs 382
scalar highwayNetwork.node[168].appl generatedWSAs 0
scalar highwayNetwork.node[168].appl receivedWSAs 0
scalar highwayNetwork.node[168].nic.phy80211p busyTime 0.0028554810267176
scalar highwayNetwork.node[168].nic.mac1609_4 ReceivedUnicastPackets 0
scalar highwayNetwork.node[168].nic.mac1609_4 ReceivedBroadcasts 382
scalar highwayNetwork.node[168].nic.mac1609_4 SentPackets 33
scalar highwayNetwork.node[168].nic.mac1609_4 SentAcknowledgements 0
scalar highwayNetwork.node[168].nic.mac1609_4 RetriesExceeded 0
scalar highwayNetwork.node[168].nic.mac1609_4 SNIRLostPackets 525
scalar highwayNetwork.node[168].nic.mac1609_4 RXTXLostPackets 0
scalar highwayNetwork.node[168].nic.mac1609_4 TotalLostPackets 525
scalar highwayNetwork.node[168].nic.mac1609_4 DroppedPacketsInMac 0
scalar highwayNetwork.node[168].nic.mac1609_4 TooLittleTime 0
scalar highwayNetwork.node[168].nic.mac1609_4 TimesIntoBackoff 33
scalar highwayNetwork.node[168].nic.mac1609_4 SlotsBackoff 58
scalar highwayNetwork.node[168].nic.mac1609_4 NumInternalContention 0
scalar highwayNetwork.node[168].nic.mac1609_4 totalBusyTime 0.097793
scalar highwayNetwork.node[168].nic.mac1609_4 retriesExceeded:count 0
attr source org_car2x_veins_modules_mac_sigRetriesExceeded
scalar highwayNetwork.node[168].nic.mac1609_4 sentAcks:count 0
attr source org_car2x_veins_modules_mac_sigSentAck
scalar highwayNetwork.node[168].nic.mac1609_4 sentPackets:count 33
attr source org_car2x_veins_modules_mac_sigSentPacket
scalar highwayNetwork.node[168].nic.mac1609_4 collisions:count 0
attr source org_car2x_veins_modules_mac_sigCollision
scalar highwayNetwork.node[168].nic.mac1609_4 channelBusy:timeavg 0.0029603729120282
attr source org_car2x_veins_modules_mac_sigChannelBusy
scalar highwayNetwork.node[168].veinsmobility startTime 337
scalar highwayNetwork.node[168].veinsmobility totalTime 33
scalar highwayNetwork.node[168].veinsmobility stopTime 370.03401392529
scalar highwayNetwork.node[168].veinsmobility minSpeed 1.9917486250401
scalar highwayNetwork.node[168].veinsmobility maxSpeed 35.182189776702
scalar highwayNetwork.node[168].veinsmobility totalDistance 582.45580194446
scalar highwayNetwork.node[168].veinsmobility totalCO2Emission 278.64736778941
scalar highwayNetwork.node[169].appl generatedWSMs 0
scalar highwayNetwork.node[169].appl receivedWSMs 0
scalar highwayNetwork.node[169].appl generatedBSMs 32
scalar highwayNetwork.node[169].appl receivedBSMs 647
scalar highwayNetwork.node[169].appl generatedWSAs 0
scalar highwayNetwork.node[169].appl receivedWSAs 0
scalar highwayNetwork.node[169].nic.phy80211p busyTime 0.0028472235859267
scalar highwayNetwork.node[169].nic.mac1609_4 ReceivedUnicastPackets 0
scalar highwayNetwork.node[169].nic.mac1609_4 ReceivedBroadcasts 647
scalar highwayNetwork.node[169].nic.mac1609_4 SentPackets 32
scalar highwayNetwork.node[169].nic.mac1609_4 SentAcknowledgements 0
scalar highwayNetwork.node[169].nic.mac1609_4 RetriesExceeded 0
scalar highwayNetwork.node[169].nic.mac1609_4 SNIRLostPackets 229
scalar highwayNetwork.node[169].nic.mac1609_4 RXTXLostPackets 0
scalar highwayNetwork.node[169].nic.mac1609_4 TotalLostPackets 229
scalar highwayNetwork.node[169].nic.mac1609_4 DroppedPacketsInMac 0
scalar highwayNetwork.node[169].nic.mac1609_4 TooLittleTime 0
scalar highwayNetwork.node[169].nic.mac1609_4 TimesIntoBackoff 32
scalar highwayNetwork.node[169].nic.mac1609_4 SlotsBackoff 39
scalar highwayNetwork.node[169].nic.mac1609_4 NumInternalContention 0
scalar highwayNetwork.node[169].nic.mac1609_4 totalBusyTime 0.094464
scalar highwayNetwork.node[169].nic.mac1609_4 retriesExceeded:count 0
attr source org_car2x_veins_modules_mac_sigRetriesExceeded
scalar highwayNetwork.node[169].nic.mac1609_4 sentAcks:count 0
attr source org_car2x_veins_modules_mac_sigSentAck
scalar highwayNetwork.node[169].nic.mac1609_4 sentPackets:count 32
attr source org_car2x_veins_modules_mac_sigSentPacket
scalar highwayNetwork.node[169].nic.mac1609_4 collisions:count 0
attr source org_car2x_veins_modules_mac_sigCollision
scalar highwayNetwork.node[169].nic.mac1609_4 channelBusy:timeavg 0.0029489167641403
attr source org_car2x_veins_modules_mac_sigChannelBusy
scalar highwayNetwork.node[169].veinsmobility startTime 338
scalar highwayNetwork.node[169].veinsmobility totalTime 32
scalar highwayNetwork.node[169].veinsmobility stopTime 370.03401392529
scalar highwayNetwork.node[169].veinsmobility minSpeed 1.980127140996
scalar highwayNetwork.node[169].veinsmobility maxSpeed 33.767591405194
scalar highwayNetwork.node[169].veinsmobility totalDistance 528.27322819748
scalar highwayNetwork.node[169].veinsmobility totalCO2Emission 239.4674308608
scalar highwayNetwork.node[172].appl generatedWSMs 0
scalar highwayNetwork.node[172].appl receivedWSMs 0
scalar highwayNetwork.node[172].appl generatedBSMs 19
scalar highwayNetwork.node[172].appl receivedBSMs 395
scalar highwayNetwork.node[172].appl generatedWSAs 0
scalar highwayNetwork.node[172].appl receivedWSAs 0
scalar highwayNetwork.node[172].nic.phy80211p busyTime 0.0026172093913308
scalar highwayNetwork.node[172].nic.mac1609_4 ReceivedUnicastPackets 0
scalar highwayNetwork.node[172].nic.mac1609_4 ReceivedBroadcasts 395
scalar highwayNetwork.node[172].nic.mac1609_4 SentPackets 19
scalar highwayNetwork.node[172].nic.mac1609_4 SentAcknowledgements 0
scalar highwayNetwork.node[172].nic.mac1609_4 RetriesExceeded 0
scalar highwayNetwork.node[172].nic.mac1609_4 SNIRLostPackets 83
scalar highwayNetwork.node[172].nic.mac1609_4 RXTXLostPackets 0
scalar highwayNetwork.node[172].nic.mac1609_4 TotalLostPackets 83
scalar highwayNetwork.node[172].nic.mac1609_4 DroppedPacketsInMac 0
scalar highwayNetwork.node[172].nic.mac1609_4 TooLittleTime 0
scalar highwayNetwork.node[172].nic.mac1609_4 TimesIntoBackoff 19
scalar highwayNetwork.node[172].nic.mac1609_4 SlotsBackoff 32
scalar highwayNetwork.node[172].nic.mac1609_4 NumInternalContention 0
scalar highwayNetwork.node[172].nic.mac1609_4 totalBusyTime 0.051707
scalar highwayNetwork.node[172].nic.mac1609_4 retriesExceeded:count 0
attr source org_car2x_veins_modules_mac_sigRetriesExceeded
scalar highwayNetwork.node[172].nic.mac1609_4 sentAcks:count 0
attr source org_car2x_veins_modules_mac_sigSentAck
scalar highwayNetwork.node[172].nic.mac1609_4 sentPackets:count 19
attr source org_car2x_veins_modules_mac_sigSentPacket
scalar highwayNetwork.node[172].nic.mac1609_4 collisions:count 0
attr source org_car2x_veins_modules_mac_sigCollision
scalar highwayNetwork.node[172].nic.mac1609_4 channelBusy:timeavg 0.0027166236215308
attr source org_car2x_veins_modules_mac_sigChannelBusy
scalar highwayNetwork.node[172].veinsmobility startTime 351
scalar highwayNetwork.node[172].veinsmobility totalTime 19
scalar highwayNetwork.node[172].veinsmobility stopTime 370.03401392529
scalar highwayNetwork.node[172].veinsmobility minSpeed 2.0968098412268
scalar highwayNetwork.node[172].veinsmobility maxSpeed 34.985760972719
scalar highwayNetwork.node[172].veinsmobility totalDistance 350.04014565106
scalar highwayNetwork.node[172].veinsmobility totalCO2Emission 211.76422750627
scalar highwayNetwork.node[173].appl generatedWSMs 0
scalar highwayNetwork.node[173].appl receivedWSMs 0
scalar highwayNetwork.node[173].appl generatedBSMs 8
scalar highwayNetwork.node[173].appl receivedBSMs 105
scalar highwayNetwork.node[173].appl generatedWSAs 0
scalar highwayNetwork.node[173].appl receivedWSAs 0
scalar highwayNetwork.node[173].nic.phy80211p busyTime 0.0023689279327834
scalar highwayNetwork.node[173].nic.mac1609_4 ReceivedUnicastPackets 0
scalar highwayNetwork.node[173].nic.mac1609_4 ReceivedBroadcasts 105
scalar highwayNetwork.node[173].nic.mac1609_4 SentPackets 8
scalar highwayNetwork.node[173].nic.mac1609_4 SentAcknowledgements 0
scalar highwayNetwork.node[173].nic.mac1609_4 RetriesExceeded 0
scalar highwayNetwork.node[173].nic.mac1609_4 SNIRLostPackets 78
scalar highwayNetwork.node[173].nic.mac1609_4 RXTXLostPackets 0
scalar highwayNetwork.node[173].nic.mac1609_4 TotalLostPackets 78
scalar highwayNetwork.node[173].nic.mac1609_4 DroppedPacketsInMac 0
scalar highwayNetwork.node[173].nic.mac1609_4 TooLittleTime 0
scalar highwayNetwork.node[173].nic.mac1609_4 TimesIntoBackoff 8
scalar highwayNetwork.node[173].nic.mac1609_4 SlotsBackoff 15
scalar highwayNetwork.node[173].nic.mac1609_4 NumInternalContention 0
scalar highwayNetwork.node[173].nic.mac1609_4 totalBusyTime 0.019872
scalar highwayNetwork.node[173].nic.mac1609_4 retriesExceeded:count 0
attr source org_car2x_veins_modules_mac_sigRetriesExceeded
scalar highwayNetwork.node[173].nic.mac1609_4 sentAcks:count 0
attr source org_car2x_veins_modules_mac_sigSentAck
scalar highwayNetwork.node[173].nic.mac1609_4 sentPackets:count 8
attr source org_car2x_veins_modules_mac_sigSentPacket
scalar highwayNetwork.node[173].nic.mac1609_4 collisions:count 0
attr source org_car2x_veins_modules_mac_sigCollision
scalar highwayNetwork.node[173].nic.mac1609_4 channelBusy:timeavg 0.0024734833900942
attr source org_car2x_veins_modules_mac_sigChannelBusy
scalar highwayNetwork.node[173].veinsmobility startTime 362
scalar highwayNetwork.node[173].veinsmobility totalTime 8
scalar highwayNetwork.node[173].veinsmobility stopTime 370.03401392529
scalar highwayNetwork.node[173].veinsmobility minSpeed 1.5917950430419
scalar highwayNetwork.node[173].veinsmobility maxSpeed 14.833441012283
scalar highwayNetwork.node[173].veinsmobility totalDistance 65.476331016561
scalar highwayNetwork.node[173].veinsmobility totalCO2Emission 41.062534197913
scalar highwayNetwork.node[174].appl generatedWSMs 0
scalar highwayNetwork.node[174].appl receivedWSMs 0
scalar highwayNetwork.node[174].appl generatedBSMs 5
scalar highwayNetwork.node[174].appl receivedBSMs 62
scalar highwayNetwork.node[174].appl generatedWSAs 0
scalar highwayNetwork.node[174].appl receivedWSAs 0
scalar highwayNetwork.node[174].nic.phy80211p busyTime 0.0022518809380008
scalar highwayNetwork.node[174].nic.mac1609_4 ReceivedUnicastPackets 0
scalar highwayNetwork.node[174].nic.mac1609_4 ReceivedBroadcasts 62
scalar highwayNetwork.node[174].nic.mac1609_4 SentPackets 5
scalar highwayNetwork.node[174].nic.mac1609_4 SentAcknowledgements 0
scalar highwayNetwork.node[174].nic.mac1609_4 RetriesExceeded 0
scalar highwayNetwork.node[174].nic.mac1609_4 SNIRLostPackets 47
scalar highwayNetwork.node[174].nic.mac1609_4 RXTXLostPackets 0
scalar highwayNetwork.node[174].nic.mac1609_4 TotalLostPackets 47
scalar highwayNetwork.node[174].nic.mac1609_4 DroppedPacketsInMac 0
scalar highwayNetwork.node[174].nic.mac1609_4 TooLittleTime 0
scalar highwayNetwork.node[174].nic.mac1609_4 TimesIntoBackoff 5
scalar highwayNetwork.node[174].nic.mac1609_4 SlotsBackoff 8
scalar highwayNetwork.node[174].nic.mac1609_4 NumInternalContention 0
scalar highwayNetwork.node[174].nic.mac1609_4 totalBusyTime 0.011861
scalar highwayNetwork.node[174].nic.mac1609_4 retriesExceeded:count 0
attr source org_car2x_veins_modules_mac_sigRetriesExceeded
scalar highwayNetwork.node[174].nic.mac1609_4 sentAcks:count 0
attr source org_car2x_veins_modules_mac_sigSentAck
scalar highwayNetwork.node[174].nic.mac1609_4 sentPackets:count 5
attr source org_car2x_veins_modules_mac_sigSentPacket
scalar highwayNetwork.node[174].nic.mac1609_4 collisions:count 0
attr source org_car2x_veins_modules_mac_sigCollision
scalar highwayNetwork.node[174].nic.mac1609_4 channelBusy:timeavg 0.0023561714719149
attr source org_car2x_veins_modules_mac_sigChannelBusy
scalar highwayNetwork.node[174].veinsmobility startTime 365
scalar highwayNetwork.node[174].veinsmobility totalTime 5
scalar highwayNetwork.node[174].veinsmobility stopTime 370.03401392529
scalar highwayNetwork.node[174].veinsmobility minSpeed 1.810334363929
scalar highwayNetwork.node[174].veinsmobility maxSpeed 10.341769751697
scalar highwayNetwork.node[174].veinsmobility totalDistance 29.827908168687
scalar highwayNetwork.node[174].veinsmobility totalCO2Emission 20.682488615731
scalar highwayNetwork.node[175].appl generatedWSMs 0
scalar highwayNetwork.node[175].appl receivedWSMs 0
scalar highwayNetwork.node[175].appl generatedBSMs 2
scalar highwayNetwork.node[175].appl receivedBSMs 24
scalar highwayNetwork.node[175].appl generatedWSAs 0
scalar highwayNetwork.node[175].appl receivedWSAs 0
scalar highwayNetwork.node[175].nic.phy80211p busyTime 0.0021474779231753
scalar highwayNetwork.node[175].nic.mac1609_4 ReceivedUnicastPackets 0
scalar highwayNetwork.node[175].nic.mac1609_4 ReceivedBroadcasts 24
scalar highwayNetwork.node[175].nic.mac1609_4 SentPackets 2
scalar highwayNetwork.node[175].nic.mac1609_4 SentAcknowledgements 0
scalar highwayNetwork.node[175].nic.mac1609_4 RetriesExceeded 0
scalar highwayNetwork.node[175].nic.mac1609_4 SNIRLostPackets 18
scalar highwayNetwork.node[175].nic.mac1609_4 RXTXLostPackets 0
scalar highwayNetwork.node[175].nic.mac1609_4 TotalLostPackets 18
scalar highwayNetwork.node[175].nic.mac1609_4 DroppedPacketsInMac 0
scalar highwayNetwork.node[175].nic.mac1609_4 TooLittleTime 0
scalar highwayNetwork.node[175].nic.mac1609_4 TimesIntoBackoff 2
scalar highwayNetwork.node[175].nic.mac1609_4 SlotsBackoff 5
scalar highwayNetwork.node[175].nic.mac1609_4 NumInternalContention 0
scalar highwayNetwork.node[175].nic.mac1609_4 totalBusyTime 0.004578
scalar highwayNetwork.node[175].nic.mac1609_4 retriesExceeded:count 0
attr source org_car2x_veins_modules_mac_sigRetriesExceeded
scalar highwayNetwork.node[175].nic.mac1609_4 sentAcks:count 0
attr source org_car2x_veins_modules_mac_sigSentAck
scalar highwayNetwork.node[175].nic.mac1609_4 sentPackets:count 2
attr source org_car2x_veins_modules_mac_sigSentPacket
scalar highwayNetwork.node[175].nic.mac1609_4 collisions:count 0
attr source org_car2x_veins_modules_mac_sigCollision
scalar highwayNetwork.node[175].nic.mac1609_4 channelBusy:timeavg 0.0022507220540972
attr source org_car2x_veins_modules_mac_sigChannelBusy
scalar highwayNetwork.node[175].veinsmobility startTime 368
scalar highwayNetwork.node[175].veinsmobility totalTime 2
scalar highwayNetwork.node[175].veinsmobility stopTime 370.03401392529
scalar highwayNetwork.node[175].veinsmobility minSpeed 1.6226831583772
scalar highwayNetwork.node[175].veinsmobility maxSpeed 3.8132773257792
scalar highwayNetwork.node[175].veinsmobility totalDistance 5.4359604841563
scalar highwayNetwork.node[175].veinsmobility totalCO2Emission 3.3122305113916

