version 2
run Default-0-20250121-19:13:44-3653
attr configname Default
attr datetime 20250121-19:13:44
attr experiment Default
attr inifile omnetpp.ini
attr iterationvars ""
attr iterationvarsf ""
attr measurement ""
attr network highwayNetwork
attr processid 3653
attr repetition 0
attr replication #0
attr resultdir results
attr runnumber 0
attr seedset 0
param *.playgroundSizeX 2500m
param *.playgroundSizeY 2500m
param *.playgroundSizeZ 50m
param *.annotations.draw true
param *.manager.updateInterval 1s
param *.manager.host "\"localhost\""
param *.manager.port 9999
param *.manager.autoShutdown true
param *.manager.launchConfig "xmldoc(\"highway.launchd.xml\")"
param *.rsu[0].mobility.x 2000
param *.rsu[0].mobility.y 2000
param *.rsu[0].mobility.z 3
param *.rsu[*].applType "\"TraCIDemoRSU11p\""
param *.rsu[*].appl.headerLength "80 bit"
param *.rsu[*].appl.sendBeacons false
param *.rsu[*].appl.dataOnSch false
param *.rsu[*].appl.beaconInterval 1s
param *.rsu[*].appl.beaconUserPriority 7
param *.rsu[*].appl.dataUserPriority 5
param *.rsu[*].nic.phy80211p.antennaOffsetZ "0 m"
param *.connectionManager.sendDirect true
param *.connectionManager.maxInterfDist 2600m
param *.connectionManager.drawMaxIntfDist false
param *.**.nic.mac1609_4.useServiceChannel false
param *.**.nic.mac1609_4.txPower 20mW
param *.**.nic.mac1609_4.bitrate 6Mbps
param *.**.nic.phy80211p.minPowerLevel -110dBm
param *.**.nic.phy80211p.useNoiseFloor true
param *.**.nic.phy80211p.noiseFloor -98dBm
param *.**.nic.phy80211p.decider "xmldoc(\"config.xml\")"
param *.**.nic.phy80211p.analogueModels "xmldoc(\"config.xml\")"
param *.**.nic.phy80211p.usePropagationDelay true
param *.**.nic.phy80211p.antenna "xmldoc(\"antenna.xml\", \"/root/Antenna[@id='monopole']\")"
param *.node[*].nic.phy80211p.antennaOffsetY "0 m"
param *.node[*].nic.phy80211p.antennaOffsetZ "1.895 m"
param *.node[*].applType "\"MyVeinsApp\""
param *.node[*].appl.headerLength "80 bit"
param *.node[*].appl.sendBeacons true
param *.node[*].appl.dataOnSch false
param *.node[*].appl.beaconInterval 1s
param *.node[*].veinsmobility.x 0
param *.node[*].veinsmobility.y 0
param *.node[*].veinsmobility.z 0
param *.node[*].veinsmobility.setHostSpeed false

vector 0 highwayNetwork.node[0].veinsmobility posx ETV
vector 1 highwayNetwork.node[0].veinsmobility posy ETV
vector 2 highwayNetwork.node[0].veinsmobility speed ETV
vector 3 highwayNetwork.node[0].veinsmobility acceleration ETV
vector 4 highwayNetwork.node[0].veinsmobility co2emission ETV
vector 5 highwayNetwork.node[1].veinsmobility posx ETV
vector 6 highwayNetwork.node[1].veinsmobility posy ETV
vector 7 highwayNetwork.node[1].veinsmobility speed ETV
vector 8 highwayNetwork.node[1].veinsmobility acceleration ETV
vector 9 highwayNetwork.node[1].veinsmobility co2emission ETV
vector 10 highwayNetwork.node[2].veinsmobility posx ETV
vector 11 highwayNetwork.node[2].veinsmobility posy ETV
vector 12 highwayNetwork.node[3].veinsmobility posx ETV
vector 13 highwayNetwork.node[3].veinsmobility posy ETV
vector 14 highwayNetwork.node[2].veinsmobility speed ETV
vector 15 highwayNetwork.node[2].veinsmobility acceleration ETV
vector 16 highwayNetwork.node[2].veinsmobility co2emission ETV
vector 17 highwayNetwork.node[3].veinsmobility speed ETV
vector 18 highwayNetwork.node[4].veinsmobility posx ETV
vector 19 highwayNetwork.node[4].veinsmobility posy ETV
vector 20 highwayNetwork.node[3].veinsmobility acceleration ETV
vector 21 highwayNetwork.node[3].veinsmobility co2emission ETV
vector 22 highwayNetwork.node[4].veinsmobility speed ETV
vector 23 highwayNetwork.node[5].veinsmobility posx ETV
vector 24 highwayNetwork.node[5].veinsmobility posy ETV
vector 25 highwayNetwork.node[4].veinsmobility acceleration ETV
vector 26 highwayNetwork.node[4].veinsmobility co2emission ETV
vector 27 highwayNetwork.node[6].veinsmobility posx ETV
vector 28 highwayNetwork.node[6].veinsmobility posy ETV
vector 29 highwayNetwork.node[7].veinsmobility posx ETV
vector 30 highwayNetwork.node[7].veinsmobility posy ETV
vector 31 highwayNetwork.node[5].veinsmobility speed ETV
vector 32 highwayNetwork.node[5].veinsmobility acceleration ETV
vector 33 highwayNetwork.node[5].veinsmobility co2emission ETV
vector 34 highwayNetwork.node[6].veinsmobility speed ETV
vector 35 highwayNetwork.node[7].veinsmobility speed ETV
vector 36 highwayNetwork.node[6].veinsmobility acceleration ETV
vector 37 highwayNetwork.node[6].veinsmobility co2emission ETV
vector 38 highwayNetwork.node[7].veinsmobility acceleration ETV
vector 39 highwayNetwork.node[7].veinsmobility co2emission ETV
vector 40 highwayNetwork.node[8].veinsmobility posx ETV
vector 41 highwayNetwork.node[8].veinsmobility posy ETV
vector 42 highwayNetwork.node[9].veinsmobility posx ETV
vector 43 highwayNetwork.node[9].veinsmobility posy ETV
vector 44 highwayNetwork.node[10].veinsmobility posx ETV
vector 45 highwayNetwork.node[10].veinsmobility posy ETV
vector 46 highwayNetwork.node[8].veinsmobility speed ETV
vector 47 highwayNetwork.node[9].veinsmobility speed ETV
vector 48 highwayNetwork.node[8].veinsmobility acceleration ETV
vector 49 highwayNetwork.node[8].veinsmobility co2emission ETV
vector 50 highwayNetwork.node[9].veinsmobility acceleration ETV
vector 51 highwayNetwork.node[9].veinsmobility co2emission ETV
vector 52 highwayNetwork.node[10].veinsmobility speed ETV
vector 53 highwayNetwork.node[11].veinsmobility posx ETV
vector 54 highwayNetwork.node[11].veinsmobility posy ETV
vector 55 highwayNetwork.node[12].veinsmobility posx ETV
vector 56 highwayNetwork.node[12].veinsmobility posy ETV
vector 57 highwayNetwork.node[10].veinsmobility acceleration ETV
vector 58 highwayNetwork.node[10].veinsmobility co2emission ETV
vector 59 highwayNetwork.node[11].veinsmobility speed ETV
vector 60 highwayNetwork.node[12].veinsmobility speed ETV
vector 61 highwayNetwork.node[13].veinsmobility posx ETV
vector 62 highwayNetwork.node[13].veinsmobility posy ETV
vector 63 highwayNetwork.node[11].veinsmobility acceleration ETV
vector 64 highwayNetwork.node[11].veinsmobility co2emission ETV
vector 65 highwayNetwork.node[12].veinsmobility acceleration ETV
vector 66 highwayNetwork.node[12].veinsmobility co2emission ETV
vector 67 highwayNetwork.node[14].veinsmobility posx ETV
vector 68 highwayNetwork.node[14].veinsmobility posy ETV
vector 69 highwayNetwork.node[15].veinsmobility posx ETV
vector 70 highwayNetwork.node[15].veinsmobility posy ETV
vector 71 highwayNetwork.node[13].veinsmobility speed ETV
vector 72 highwayNetwork.node[13].veinsmobility acceleration ETV
vector 73 highwayNetwork.node[13].veinsmobility co2emission ETV
vector 74 highwayNetwork.node[14].veinsmobility speed ETV
vector 75 highwayNetwork.node[15].veinsmobility speed ETV
vector 76 highwayNetwork.node[14].veinsmobility acceleration ETV
vector 77 highwayNetwork.node[14].veinsmobility co2emission ETV
vector 78 highwayNetwork.node[15].veinsmobility acceleration ETV
vector 79 highwayNetwork.node[15].veinsmobility co2emission ETV
vector 80 highwayNetwork.node[16].veinsmobility posx ETV
vector 81 highwayNetwork.node[16].veinsmobility posy ETV
vector 82 highwayNetwork.node[16].veinsmobility speed ETV
vector 83 highwayNetwork.node[16].veinsmobility acceleration ETV
vector 84 highwayNetwork.node[16].veinsmobility co2emission ETV
vector 85 highwayNetwork.node[17].veinsmobility posx ETV
vector 86 highwayNetwork.node[17].veinsmobility posy ETV
vector 87 highwayNetwork.node[17].veinsmobility speed ETV
vector 88 highwayNetwork.node[17].veinsmobility acceleration ETV
vector 89 highwayNetwork.node[17].veinsmobility co2emission ETV
vector 90 highwayNetwork.node[18].veinsmobility posx ETV
vector 91 highwayNetwork.node[18].veinsmobility posy ETV
vector 92 highwayNetwork.node[18].veinsmobility speed ETV
vector 93 highwayNetwork.node[18].veinsmobility acceleration ETV
vector 94 highwayNetwork.node[18].veinsmobility co2emission ETV
vector 95 highwayNetwork.node[19].veinsmobility posx ETV
vector 96 highwayNetwork.node[19].veinsmobility posy ETV
37	2032	15	3.328978911834
37	2471	16	5.3992915792338
37	3128	17	5.4988625648564
37	3919	18	6.7678433290806
37	4710	19	6.1863116867043
37	5787	20	8.1017470481023
37	6862	21	11.337945670252
37	8110	22	12.517160117583
37	9710	23	15.406650010716
37	11311	24	10.453776731251
37	12912	25	14.79967047426
37	14706	26	15.225777443438
37	16499	27	19.572918558092
37	18294	28	16.990413443357
37	20292	29	24.499799712277
37	22290	30	20.453132782545
37	24285	31	24.792468733659
37	26493	32	25.625454532102
37	28698	33	26.225855645893
37	30903	34	29.078424729684
36	2032	15	2.211610493972
36	2471	16	2.5730224694125
36	3128	17	1.9570330932038
36	3919	18	2.024080570112
36	4710	19	1.5185152296908
36	5787	20	1.8416817353806
36	6862	21	2.3425182775361
36	8110	22	2.2547640341101
36	9710	23	2.4851582406089
36	11311	24	1.3605886530131
36	12912	25	1.9341500595678
36	14706	26	1.8037161043379
36	16499	27	2.2205611141864
36	18294	28	1.6710514789214
36	20292	29	2.4151789380936
36	22290	30	1.7236262955237
36	24285	31	2.0357818060555
36	26493	32	1.9329202841036
36	28698	33	1.8186493640533
36	30903	34	1.9218587005511
34	1593	14	1.5972831639228
34	2032	15	3.8088936578948
34	2471	16	6.3819161273073
34	3128	17	8.3389492205111
34	3919	18	10.363029790623
34	4710	19	11.881545020314
34	5787	20	13.723226755694
34	6862	21	16.065745033231
34	8110	22	18.320509067341
34	9710	23	20.80566730795
34	11311	24	22.166255960963
34	12912	25	24.100406020531
34	14706	26	25.904122124868
34	16499	27	28.124683239055
34	18294	28	29.795734717976
34	20292	29	32.21091365607
34	22290	30	33.934539951594
34	24285	31	35.970321757649
34	26493	32	37.903242041753
34	28698	33	39.721891405806
34	30903	34	41.643750106357
28	1154	13	530.1
28	1593	14	531.69728316392
28	2032	15	535.50617682182
28	2471	16	541.88809294912
28	3128	17	550.22704216964
28	3919	18	560.59007196026
28	4710	19	572.47161698057
28	5787	20	586.19484373627
28	6862	21	602.2605887695
28	8110	22	620.58109783684
28	9710	23	641.38676514479
28	11311	24	663.55302110575
28	12912	25	687.65342712628
28	14706	26	713.55754925115
28	16499	27	741.68223249021
28	18294	28	771.47796720818
28	20292	29	803.68888086425
28	22290	30	837.62342081585
28	24285	31	873.59374257349
28	26493	32	911.49698461525
28	28698	33	951.21887602105
28	30903	34	992.86262612741
27	1154	13	520.2
27	1593	14	520.2
27	2032	15	520.2
27	2471	16	520.2
27	3128	17	520.2
27	3919	18	520.2
27	4710	19	520.2
27	5787	20	520.2
27	6862	21	520.2
27	8110	22	520.2
27	9710	23	520.2
27	11311	24	520.2
27	12912	25	520.2
27	14706	26	520.2
27	16499	27	520.2
27	18294	28	520.2
27	20292	29	520.2
27	22290	30	520.2
27	24285	31	520.2
27	26493	32	520.2
27	28698	33	520.2
27	30903	34	520.2
vector 97 highwayNetwork.node[19].veinsmobility speed ETV
33	1593	14	2.6430798350554
33	2032	15	4.2187804737461
33	2471	16	4.7737073412977
33	3128	17	5.1399073631665
33	3919	18	7.3787508603469
33	4710	19	8.2306388435234
33	5787	20	11.252826755266
33	6862	21	9.0783152346285
33	8110	22	9.5496318487135
33	9710	23	13.720444982725
33	11311	24	11.084068196362
33	12912	25	17.008626544897
33	14706	26	14.962224570827
33	16499	27	20.984377460973
33	18294	28	19.292502164407
33	20292	29	20.984526047226
33	22290	30	27.299868803099
33	24285	31	10.204649247219
33	26493	32	0.973
33	28698	33	0.973
33	30903	34	0.973
33	33334	35	17.726087625208
32	1593	14	1.5386003302643
32	2032	15	2.0509439486312
32	2471	16	1.8043566671899
32	3128	17	1.6041181919165
32	3919	18	2.0774973521242
32	4710	19	1.978090670798
32	5787	20	2.4095179134747
32	6862	21	1.6108357550111
32	8110	22	1.5362542288844
32	9710	23	2.1413444074569
32	11311	24	1.46273933833
32	12912	25	2.2526047209976
32	14706	26	1.7205238553463
32	16499	27	2.3624863617821
32	18294	28	1.909713353985
32	20292	29	1.9322838927852
32	22290	30	2.4417801132426
32	24285	31	0.38937819745826
32	26493	32	-4.5
32	28698	33	-4.4804874547097
32	30903	34	-4.5
32	33334	35	2.4152555802604
31	1154	13	2.1092279310804
31	1593	14	3.6478282613447
31	2032	15	5.6987722099759
31	2471	16	7.5031288771657
31	3128	17	9.1072470690822
31	3919	18	11.184744421206
31	4710	19	13.162835092004
31	5787	20	15.572353005479
31	6862	21	17.18318876049
31	8110	22	18.719442989375
31	9710	23	20.860787396831
31	11311	24	22.323526735161
31	12912	25	24.576131456159
31	14706	26	26.296655311505
31	16499	27	28.659141673287
31	18294	28	30.568855027272
31	20292	29	32.501138920058
31	22290	30	34.9429190333
31	24285	31	35.332297230758
31	26493	32	30.832297230758
31	28698	33	26.351809776049
31	30903	34	21.851809776049
31	33334	35	24.267065356309
24	889	12	520.2
24	1154	13	520.2
24	1593	14	520.2
24	2032	15	520.2
24	2471	16	520.2
24	3128	17	520.2
24	3919	18	520.2
24	4710	19	520.2
24	5787	20	520.2
24	6862	21	520.2
24	8110	22	520.2
24	9710	23	520.2
24	11311	24	520.2
24	12912	25	520.2
24	14706	26	520.2
24	16499	27	520.2
24	18294	28	520.2
24	20292	29	520.2
24	22290	30	520.2
24	24285	31	520.2
24	26493	32	520.2
24	28698	33	520.2
24	30903	34	523.4
24	33334	35	523.4
23	889	12	1013.5
23	1154	13	1011.3907720689
23	1593	14	1007.7429438076
23	2032	15	1002.0441715976
23	2471	16	994.54104272043
23	3128	17	985.43379565135
23	3919	18	974.24905123014
23	4710	19	961.08621613814
23	5787	20	945.51386313266
23	6862	21	928.33067437217
23	8110	22	909.6112313828
23	9710	23	888.75044398597
23	11311	24	866.4269172508
23	12912	25	841.85078579464
23	14706	26	815.55413048314
23	16499	27	786.89498880985
23	18294	28	756.32613378258
23	20292	29	723.82499486252
23	22290	30	688.88207582922
23	24285	31	653.54977859846
23	26493	32	622.7174813677
23	28698	33	596.36567159166
23	30903	34	574.51386181561
23	33334	35	550.2467964593
vector 98 highwayNetwork.node[19].veinsmobility acceleration ETV
vector 99 highwayNetwork.node[19].veinsmobility co2emission ETV
vector 100 highwayNetwork.node[20].veinsmobility posx ETV
vector 101 highwayNetwork.node[20].veinsmobility posy ETV
vector 102 highwayNetwork.node[21].veinsmobility posx ETV
vector 103 highwayNetwork.node[21].veinsmobility posy ETV
49	3919	18	2.6116930695776
49	4710	19	3.9014679754244
49	5787	20	5.7828725756006
49	6862	21	5.4132348867895
49	8110	22	8.5473499656636
49	9710	23	10.23712136297
49	11311	24	8.0280570844734
49	12912	25	8.3418455191653
49	14706	26	14.895203220842
49	16499	27	11.533929217564
49	18294	28	17.396210130904
49	20292	29	13.529303089986
49	22290	30	20.181063874528
49	24285	31	23.003727427057
49	26493	32	25.713990697899
49	28698	33	19.745470848602
49	30903	34	22.885267934503
49	33334	35	25.123244502118
49	35544	36	30.419941524978
49	37539	37	16.174310765444
48	3919	18	1.6265549525851
48	4710	19	1.9519408820895
48	5787	20	2.3077643562108
48	6862	21	1.6780295867007
48	8110	22	2.3801559150219
48	9710	23	2.404508772539
48	11311	24	1.5384176130407
48	12912	25	1.4419385107234
48	14706	26	2.5601983566536
48	16499	27	1.6543338359101
48	18294	28	2.4291044056183
48	20292	29	1.5876525437925
48	22290	30	2.3625791280065
48	24285	31	2.4629776221467
48	26493	32	2.514767751866
48	28698	33	1.6049074374605
48	30903	34	1.8044736620272
48	33334	35	1.8724571230589
48	35544	36	2.2090899255127
48	37539	37	0.68981463052186
46	3128	17	1.7762572988868
46	3919	18	3.4028122514719
46	4710	19	5.3547531335615
46	5787	20	7.6625174897723
46	6862	21	9.340547076473
46	8110	22	11.720702991495
46	9710	23	14.125211764034
46	11311	24	15.663629377075
46	12912	25	17.105567887798
46	14706	26	19.665766244452
46	16499	27	21.320100080362
46	18294	28	23.74920448598
46	20292	29	25.336857029772
46	22290	30	27.699436157779
46	24285	31	30.162413779926
46	26493	32	32.677181531792
46	28698	33	34.282088969252
46	30903	34	36.086562631279
46	33334	35	37.959019754338
46	35544	36	40.168109679851
46	37539	37	40.857924310373
41	2471	16	530.1
41	3128	17	531.87625729889
41	3919	18	535.27906955036
41	4710	19	540.63382268392
41	5787	20	548.29634017369
41	6862	21	557.63688725017
41	8110	22	569.35759024166
41	9710	23	583.48280200569
41	11311	24	599.14643138277
41	12912	25	616.25199927057
41	14706	26	635.91776551502
41	16499	27	657.23786559538
41	18294	28	680.98707008136
41	20292	29	706.32392711113
41	22290	30	734.02336326891
41	24285	31	764.18577704884
41	26493	32	796.86295858063
41	28698	33	831.14504754988
41	30903	34	867.23161018116
41	33334	35	905.1906299355
41	35544	36	945.35873961535
41	37539	37	986.21666392572
40	2471	16	520.2
40	3128	17	520.2
40	3919	18	520.2
40	4710	19	520.2
40	5787	20	520.2
40	6862	21	520.2
40	8110	22	520.2
40	9710	23	520.2
40	11311	24	520.2
40	12912	25	520.2
40	14706	26	520.2
40	16499	27	520.2
40	18294	28	520.2
40	20292	29	520.2
40	22290	30	520.2
40	24285	31	520.2
40	26493	32	520.2
40	28698	33	520.2
40	30903	34	520.2
40	33334	35	520.2
40	35544	36	520.2
40	37539	37	520.2
vector 104 highwayNetwork.node[20].veinsmobility speed ETV
vector 105 highwayNetwork.node[21].veinsmobility speed ETV
vector 106 highwayNetwork.node[20].veinsmobility acceleration ETV
vector 107 highwayNetwork.node[20].veinsmobility co2emission ETV
vector 108 highwayNetwork.node[21].veinsmobility acceleration ETV
vector 109 highwayNetwork.node[21].veinsmobility co2emission ETV
vector 110 highwayNetwork.node[22].veinsmobility posx ETV
vector 111 highwayNetwork.node[22].veinsmobility posy ETV
vector 112 highwayNetwork.node[22].veinsmobility speed ETV
vector 113 highwayNetwork.node[22].veinsmobility acceleration ETV
vector 114 highwayNetwork.node[22].veinsmobility co2emission ETV
vector 115 highwayNetwork.node[23].veinsmobility posx ETV
vector 116 highwayNetwork.node[23].veinsmobility posy ETV
vector 117 highwayNetwork.node[23].veinsmobility speed ETV
vector 118 highwayNetwork.node[23].veinsmobility acceleration ETV
vector 119 highwayNetwork.node[23].veinsmobility co2emission ETV
79	11311	24	3.3218849347623
79	12912	25	4.9415204618544
79	14706	26	4.221153608719
79	16499	27	6.0288210216796
79	18294	28	7.5992145906473
79	20292	29	7.9648086004621
79	22290	30	7.6630632774151
79	24285	31	11.681331352499
79	26493	32	14.807968508174
79	28698	33	17.136979931119
79	30903	34	16.46421831471
79	33334	35	18.062328927061
79	35544	36	22.010116575587
79	37539	37	24.949094304753
79	39976	38	21.488439167335
79	42199	39	27.370603026266
79	44416	40	11.817685467316
79	46860	41	0.973
79	49302	42	0.973
79	51744	43	0.973
79	54425	44	18.34690415958
79	57104	45	21.858706502835
78	11311	24	2.1631069418276
78	12912	25	2.3424416411202
78	14706	26	1.4591005797498
78	16499	27	1.8968547896016
78	18294	28	2.0622324088821
78	20292	29	1.8409282227047
78	22290	30	1.526093074563
78	24285	31	2.2313503152458
78	26493	32	2.5266225533327
78	28698	33	2.5846755577717
78	30903	34	2.1685530676972
78	33334	35	2.1638504569884
78	35544	36	2.451820328203
78	37539	37	2.5390347848181
78	39976	38	1.8881380040897
78	42199	39	2.341368198581
78	44416	40	0.51200214410727
78	46860	41	-4.3704582299484
78	49302	42	-4.4834505987653
78	51744	43	-4.5
78	54425	44	2.3656493975548
78	57104	45	2.5746821876615
75	9710	23	1.7110360453138
75	11311	24	3.8741429871414
75	12912	25	6.2165846282616
75	14706	26	7.6756852080114
75	16499	27	9.5725399976131
75	18294	28	11.634772406495
75	20292	29	13.4757006292
75	22290	30	15.001793703763
75	24285	31	17.233144019009
75	26493	32	19.759766572341
75	28698	33	22.344442130113
75	30903	34	24.51299519781
75	33334	35	26.676845654799
75	35544	36	29.128665983002
75	37539	37	31.66770076782
75	39976	38	33.555838771909
75	42199	39	35.897206970491
75	44416	40	36.409209114598
75	46860	41	32.038750884649
75	49302	42	27.555300285884
75	51744	43	23.055300285884
75	54425	44	25.420949683439
75	57104	45	27.9956318711
70	8110	22	530.1
70	9710	23	531.81103604531
70	11311	24	535.68517903246
70	12912	25	541.90176366072
70	14706	26	549.57744886873
70	16499	27	559.14998886634
70	18294	28	570.78476127284
70	20292	29	584.26046190204
70	22290	30	599.2622556058
70	24285	31	616.49539962481
70	26493	32	636.25516619715
70	28698	33	658.59960832726
70	30903	34	683.11260352507
70	33334	35	709.78944917987
70	35544	36	738.91811516287
70	37539	37	770.58581593069
70	39976	38	804.1416547026
70	42199	39	840.03886167309
70	44416	40	876.44807078769
70	46860	41	908.48682167234
70	49302	42	936.04212195822
70	51744	43	959.09742224411
70	54425	44	984.51837192755
70	57104	45	1012.5140037986
69	8110	22	520.2
69	9710	23	520.2
69	11311	24	520.2
69	12912	25	520.2
69	14706	26	520.2
69	16499	27	520.2
69	18294	28	520.2
69	20292	29	520.2
69	22290	30	520.2
69	24285	31	520.2
69	26493	32	520.2
69	28698	33	520.2
69	30903	34	520.2
69	33334	35	520.2
69	35544	36	520.2
69	37539	37	520.2
69	39976	38	520.2
69	42199	39	520.2
69	44416	40	520.2
69	46860	41	520.2
69	49302	42	520.2
69	51744	43	523.4
69	54425	44	523.4
69	57104	45	523.4
vector 120 highwayNetwork.node[24].veinsmobility posx ETV
vector 121 highwayNetwork.node[24].veinsmobility posy ETV
vector 122 highwayNetwork.node[24].veinsmobility speed ETV
vector 123 highwayNetwork.node[24].veinsmobility acceleration ETV
vector 124 highwayNetwork.node[24].veinsmobility co2emission ETV
vector 125 highwayNetwork.node[25].veinsmobility posx ETV
vector 126 highwayNetwork.node[25].veinsmobility posy ETV
vector 127 highwayNetwork.node[26].veinsmobility posx ETV
vector 128 highwayNetwork.node[26].veinsmobility posy ETV
vector 129 highwayNetwork.node[25].veinsmobility speed ETV
vector 130 highwayNetwork.node[25].veinsmobility acceleration ETV
vector 131 highwayNetwork.node[25].veinsmobility co2emission ETV
vector 132 highwayNetwork.node[26].veinsmobility speed ETV
vector 133 highwayNetwork.node[27].veinsmobility posx ETV
vector 134 highwayNetwork.node[27].veinsmobility posy ETV
vector 135 highwayNetwork.node[26].veinsmobility acceleration ETV
vector 136 highwayNetwork.node[26].veinsmobility co2emission ETV
vector 137 highwayNetwork.node[28].veinsmobility posx ETV
vector 138 highwayNetwork.node[28].veinsmobility posy ETV
vector 139 highwayNetwork.node[27].veinsmobility speed ETV
vector 140 highwayNetwork.node[27].veinsmobility acceleration ETV
vector 141 highwayNetwork.node[27].veinsmobility co2emission ETV
vector 142 highwayNetwork.node[28].veinsmobility speed ETV
21	507	10	3.8351988822478
21	698	11	3.1266669628555
21	889	12	5.7583180138575
21	1154	13	4.8637385028677
21	1593	14	6.8590547145329
21	2032	15	9.3701381379553
21	2471	16	12.185864067888
21	3128	17	11.357380885547
21	3919	18	12.864046006537
21	4710	19	10.676538176112
21	5787	20	14.016030722128
21	6862	21	13.987534345572
21	8110	22	14.970287378414
21	9710	23	18.916701493199
21	11311	24	14.786700442834
21	12912	25	23.951005732342
21	14706	26	17.067512895491
21	16499	27	26.048370572046
21	18294	28	0.973
21	20292	29	0.973
21	22290	30	0.973
21	24285	31	0.973
21	26493	32	0.973
21	28698	33	0.973
21	30903	34	0.973
21	33334	35	0.973
21	35544	36	6.1505994622358
21	37539	37	6.4084133148143
21	39976	38	6.3063980549905
21	42199	39	6.9437664406277
21	44416	40	10.190122303744
21	46860	41	8.2094331570844
21	49302	42	11.543178891122
21	51744	43	14.070966814872
21	54425	44	11.482441681934
21	57104	45	13.695465516069
21	59787	46	12.295233398245
21	62477	47	12.679217801806
21	65167	48	18.637165424825
21	67857	49	16.30456725838
21	70795	50	24.658953012999
21	73998	51	18.163012307274
21	77198	52	23.028221076075
21	80669	53	27.668079767283
21	84428	54	30.499773768841
20	507	10	2.5855512305163
20	698	11	1.3408971355064
20	889	12	2.2887285570381
20	1154	13	1.470047099865
20	1593	14	1.9098876064643
20	2032	15	2.2974531752989
20	2471	16	2.5851815555245
20	3128	17	2.0403905372834
20	3919	18	2.0769432306988
20	4710	19	1.4662848361069
20	5787	20	1.8780365827261
20	6862	21	1.6880137102446
20	8110	22	1.6739130561706
20	9710	23	2.0460806945339
20	11311	24	1.3339881885564
20	12912	25	2.3155586204957
20	14706	26	1.3222682942171
20	16499	27	2.1812299663667
20	18294	28	-4.2725775089736
20	20292	29	-4.5
20	22290	30	-4.5
20	24285	31	-4.372788315895
20	26493	32	-4.5
20	28698	33	-3.7621272112937
20	30903	34	-4.5
20	33334	35	-0.3762304199161
20	35544	36	2.500087848492
20	37539	37	2.0280163117917
20	39976	38	1.6487449898385
20	42199	39	1.6030559406616
20	44416	40	2.197288528271
20	46860	41	1.4658898041118
20	49302	42	1.9923757349839
20	51744	43	2.2151106905658
20	54425	44	1.5325626499485
20	57104	45	1.7432528037578
20	59787	46	1.372461078316
20	62477	47	1.3160868794192
20	65167	48	2.006804089318
20	67857	49	1.52604030082
20	70795	50	2.3773898241809
20	73998	51	1.4263187174452
20	77198	52	1.8327382205753
20	80669	53	2.1356637095567
20	84428	54	2.202902103588
17	378	9	1.4645417755703
17	507	10	4.0500930060865
17	698	11	5.3909901415929
17	889	12	7.679718698631
17	1154	13	9.1497657984961
17	1593	14	11.05965340496
17	2032	15	13.357106580259
17	2471	16	15.942288135784
17	3128	17	17.982678673067
17	3919	18	20.059621903766
17	4710	19	21.525906739873
17	5787	20	23.403943322599
17	6862	21	25.091957032843
17	8110	22	26.765870089014
17	9710	23	28.811950783548
17	11311	24	30.145938972104
17	12912	25	32.4614975926
17	14706	26	33.783765886817
17	16499	27	35.964995853184
17	18294	28	31.69241834421
17	20292	29	27.19241834421
17	22290	30	22.69241834421
17	24285	31	18.319630028315
17	26493	32	13.819630028315
17	28698	33	10.057502817022
17	30903	34	5.5575028170216
17	33334	35	5.1812723971055
17	35544	36	7.6813602455974
17	37539	37	9.7093765573892
17	39976	38	11.358121547228
17	42199	39	12.961177487889
17	44416	40	15.15846601616
17	46860	41	16.624355820272
17	49302	42	18.616731555256
17	51744	43	20.831842245822
17	54425	44	22.36440489577
17	57104	45	24.107657699528
17	59787	46	25.480118777844
17	62477	47	26.796205657263
17	65167	48	28.803009746581
17	67857	49	30.329050047401
17	70795	50	32.706439871582
17	73998	51	34.132758589027
17	77198	52	35.965496809603
17	80669	53	38.101160519159
17	84428	54	40.304062622747
13	249	8	520.2
13	378	9	520.2
13	507	10	520.2
13	698	11	520.2
13	889	12	520.2
13	1154	13	520.2
13	1593	14	520.2
13	2032	15	520.2
13	2471	16	520.2
13	3128	17	520.2
13	3919	18	520.2
13	4710	19	520.2
13	5787	20	520.2
13	6862	21	520.2
13	8110	22	520.2
13	9710	23	520.2
13	11311	24	520.2
13	12912	25	520.2
13	14706	26	520.2
13	16499	27	520.2
13	18294	28	520.2
13	20292	29	520.2
13	22290	30	520.2
13	24285	31	520.2
13	26493	32	520.2
13	28698	33	520.2
13	30903	34	522.30377190859
13	33334	35	527.36507751121
13	35544	36	535.0464377568
13	37539	37	544.75581431419
13	39976	38	556.11393586142
13	42199	39	569.07511334931
13	44416	40	584.23357936547
13	46860	41	600.85793518574
13	49302	42	619.474666741
13	51744	43	640.30650898682
13	54425	44	662.67091388259
13	57104	45	686.77857158212
13	59787	46	712.25869035996
13	62477	47	739.05489601722
13	65167	48	767.85790576381
13	67857	49	798.18695581121
13	70795	50	830.89339568279
13	73998	51	865.02615427182
13	77198	52	900.99165108142
13	80669	53	939.09281160058
13	84428	54	979.39687422333
12	249	8	1013.5
12	378	9	1012.0354582244
12	507	10	1007.9853652183
12	698	11	1002.5943750768
12	889	12	994.91465637812
12	1154	13	985.76489057962
12	1593	14	974.70523717466
12	2032	15	961.3481305944
12	2471	16	945.40584245862
12	3128	17	927.42316378555
12	3919	18	907.36354188179
12	4710	19	885.83763514191
12	5787	20	862.43369181931
12	6862	21	837.34173478647
12	8110	22	810.57586469746
12	9710	23	781.76391391391
12	11311	24	751.6179749418
12	12912	25	719.1564773492
12	14706	26	685.37271146239
12	16499	27	649.4077156092
12	18294	28	617.71529726499
12	20292	29	590.52287892078
12	22290	30	567.83046057657
12	24285	31	549.51083054826
12	26493	32	535.69120051994
12	28698	33	525.63369770292
12	30903	34	520.85773685484
12	33334	35	520.2
12	35544	36	520.2
12	37539	37	520.2
12	39976	38	520.2
12	42199	39	520.2
12	44416	40	520.2
12	46860	41	520.2
12	49302	42	520.2
12	51744	43	520.2
12	54425	44	520.2
12	57104	45	520.2
12	59787	46	520.2
12	62477	47	520.2
12	65167	48	520.2
12	67857	49	520.2
12	70795	50	520.2
12	73998	51	520.2
12	77198	52	520.2
12	80669	53	520.2
12	84428	54	520.2
vector 143 highwayNetwork.node[29].veinsmobility posx ETV
vector 144 highwayNetwork.node[29].veinsmobility posy ETV
vector 145 highwayNetwork.node[28].veinsmobility acceleration ETV
vector 146 highwayNetwork.node[28].veinsmobility co2emission ETV
vector 147 highwayNetwork.node[30].veinsmobility posx ETV
vector 148 highwayNetwork.node[30].veinsmobility posy ETV
vector 149 highwayNetwork.node[29].veinsmobility speed ETV
vector 150 highwayNetwork.node[29].veinsmobility acceleration ETV
vector 151 highwayNetwork.node[29].veinsmobility co2emission ETV
vector 152 highwayNetwork.node[30].veinsmobility speed ETV
vector 153 highwayNetwork.node[31].veinsmobility posx ETV
vector 154 highwayNetwork.node[31].veinsmobility posy ETV
vector 155 highwayNetwork.node[30].veinsmobility acceleration ETV
vector 156 highwayNetwork.node[30].veinsmobility co2emission ETV
vector 157 highwayNetwork.node[31].veinsmobility speed ETV
vector 158 highwayNetwork.node[31].veinsmobility acceleration ETV
vector 159 highwayNetwork.node[31].veinsmobility co2emission ETV
vector 160 highwayNetwork.node[32].veinsmobility posx ETV
vector 161 highwayNetwork.node[32].veinsmobility posy ETV
vector 162 highwayNetwork.node[33].veinsmobility posx ETV
vector 163 highwayNetwork.node[33].veinsmobility posy ETV
vector 164 highwayNetwork.node[32].veinsmobility speed ETV
vector 165 highwayNetwork.node[32].veinsmobility acceleration ETV
vector 166 highwayNetwork.node[32].veinsmobility co2emission ETV
vector 167 highwayNetwork.node[33].veinsmobility speed ETV
vector 168 highwayNetwork.node[34].veinsmobility posx ETV
vector 169 highwayNetwork.node[34].veinsmobility posy ETV
vector 170 highwayNetwork.node[33].veinsmobility acceleration ETV
vector 171 highwayNetwork.node[33].veinsmobility co2emission ETV
vector 172 highwayNetwork.node[34].veinsmobility speed ETV
vector 173 highwayNetwork.node[34].veinsmobility acceleration ETV
vector 174 highwayNetwork.node[34].veinsmobility co2emission ETV
vector 175 highwayNetwork.node[35].veinsmobility posx ETV
vector 176 highwayNetwork.node[35].veinsmobility posy ETV
vector 177 highwayNetwork.node[35].veinsmobility speed ETV
64	6862	21	2.9409678137599
64	8110	22	4.9463108104029
64	9710	23	4.9075368735776
64	11311	24	8.458799059456
64	12912	25	6.4432555028839
64	14706	26	7.6178864319651
64	16499	27	7.3901008478167
64	18294	28	10.291087647349
64	20292	29	12.581636276648
64	22290	30	13.485957250403
64	24285	31	13.419398489028
64	26493	32	14.290496791399
64	28698	33	14.021868438273
64	30903	34	14.007980967348
64	33334	35	23.35234484411
64	35544	36	21.991679572473
64	37539	37	18.561705314327
64	39976	38	18.212461787496
64	42199	39	0.973
64	44416	40	0.973
64	46860	41	0.973
64	49302	42	0.973
64	51744	43	0.973
64	54425	44	0.973
64	57104	45	0.973
64	59787	46	0.973
64	62477	47	4.5540393224766
64	65167	48	5.1577188177113
64	67857	49	5.2250098164545
64	70795	50	5.4707468806306
64	73998	51	8.9194610245665
64	77198	52	11.380470549504
64	80669	53	10.338636593306
64	84428	54	10.206703194466
64	88178	55	16.428619763011
64	91938	56	15.681677168425
64	95993	57	12.249087785197
64	100050	58	21.377884765444
64	104408	59	10.289538746264
64	108763	60	10.360610045065
64	113110	61	7.3451245791101
64	117776	62	4.4472147413029
64	122775	63	0.973
64	127765	64	6.7380418814673
64	133077	65	10.306152910098
64	138390	66	3.4832378953781
64	143693	67	1.7994175414891
64	149340	68	1.5818459067241
63	6862	21	1.6113100742921
63	8110	22	2.2573162979912
63	9710	23	1.7090322415344
63	11311	24	2.5948672524886
63	12912	25	1.5435927484417
63	14706	26	1.6617180934176
63	16499	27	1.4068936402211
63	18294	28	1.8946923216572
63	20292	29	2.1146570136538
63	22290	30	2.0256168721709
63	24285	31	1.7969029213535
63	26493	32	1.7544836585876
63	28698	33	1.55320983727
63	30903	34	1.4187564496882
63	33334	35	2.4824028446572
63	35544	36	2.0654626846779
63	37539	37	1.4910441078944
63	39976	38	1.3339315209217
63	42199	39	-4.4992281809449
63	44416	40	-4.5
63	46860	41	-4.5
63	49302	42	-4.5
63	51744	43	-4.5
63	54425	44	-4.039218156063
63	57104	45	-4.3551408882486
63	59787	46	-1.3164246449666
63	62477	47	2.3995883058989
63	65167	48	2.0199117310578
63	67857	49	1.6379354011733
63	70795	50	1.4645966956159
63	73998	51	2.2576904759509
63	77198	52	2.4876354420092
63	80669	53	1.9061387947062
63	84428	54	1.6593176549533
63	88178	55	2.5810525485314
63	91938	56	2.1443782452494
63	95993	57	1.4056288831402
63	100050	58	2.5558465809329
63	104408	59	0.83024787589883
63	108763	60	0.78686143390369
63	113110	61	0.34062002059072
63	117776	62	-0.063833873625846
63	122775	63	-1.136752398056
63	127765	64	0.30029371927958
63	133077	65	0.76536829064135
63	138390	66	-0.19060473148711
63	143693	67	-0.41893128026277
63	149340	68	-0.43958454357926
59	5787	20	2.5672767461976
59	6862	21	4.1785868204897
59	8110	22	6.4359031184809
59	9710	23	8.1449353600154
59	11311	24	10.739802612504
59	12912	25	12.283395360946
59	14706	26	13.945113454363
59	16499	27	15.352007094584
59	18294	28	17.246699416242
59	20292	29	19.361356429895
59	22290	30	21.386973302066
59	24285	31	23.18387622342
59	26493	32	24.938359882007
59	28698	33	26.491569719277
59	30903	34	27.910326168966
59	33334	35	30.392729013623
59	35544	36	32.458191698301
59	37539	37	33.949235806195
59	39976	38	35.283167327117
59	42199	39	30.783939146172
59	44416	40	26.283939146172
59	46860	41	21.783939146172
59	49302	42	17.283939146172
59	51744	43	12.783939146172
59	54425	44	8.7447209901089
59	57104	45	4.3895801018603
59	59787	46	3.0731554568937
59	62477	47	5.4727437627926
59	65167	48	7.4926554938504
59	67857	49	9.1305908950237
59	70795	50	10.59518759064
59	73998	51	12.852878066591
59	77198	52	15.3405135086
59	80669	53	17.246652303306
59	84428	54	18.905969958259
59	88178	55	21.487022506791
59	91938	56	23.63140075204
59	95993	57	25.03702963518
59	100050	58	27.592876216113
59	104408	59	28.423124092012
59	108763	60	29.209985525916
59	113110	61	29.550605546506
59	117776	62	29.486771672881
59	122775	63	28.350019274825
59	127765	64	28.650312994104
59	133077	65	29.415681284746
59	138390	66	29.225076553258
59	143693	67	28.806145272996
59	149340	68	28.366560729416
54	4710	19	530.1
54	5787	20	532.6672767462
54	6862	21	536.84586356669
54	8110	22	543.28176668517
54	9710	23	551.42670204518
54	11311	24	562.16650465769
54	12912	25	574.44990001863
54	14706	26	588.395013473
54	16499	27	603.74702056758
54	18294	28	620.99371998382
54	20292	29	640.35507641372
54	22290	30	661.74204971578
54	24285	31	684.9259259392
54	26493	32	709.86428582121
54	28698	33	736.35585554049
54	30903	34	764.26618170945
54	33334	35	794.65891072308
54	35544	36	827.11710242138
54	37539	37	861.06633822757
54	39976	38	896.34950555469
54	42199	39	927.13344470086
54	44416	40	953.41738384703
54	46860	41	975.20132299321
54	49302	42	992.48526213938
54	51744	43	1005.2692012855
54	54425	44	1014.0139222757
54	57104	45	1018.4035023775
54	59787	46	1020.2
54	62477	47	1020.2
54	65167	48	1020.2
54	67857	49	1020.2
54	70795	50	1020.2
54	73998	51	1020.2
54	77198	52	1020.2
54	80669	53	1020.2
54	84428	54	1020.2
54	88178	55	1020.2
54	91938	56	1020.2
54	95993	57	1020.2
54	100050	58	1020.2
54	104408	59	1020.2
54	108763	60	1020.2
54	113110	61	1020.2
54	117776	62	1020.2
54	122775	63	1020.2
54	127765	64	1020.2
54	133077	65	1020.2
54	138390	66	1020.2
54	143693	67	1020.2
54	149340	68	1020.2
53	4710	19	520.2
53	5787	20	520.2
53	6862	21	520.2
53	8110	22	520.2
53	9710	23	520.2
53	11311	24	520.2
53	12912	25	520.2
53	14706	26	520.2
53	16499	27	520.2
53	18294	28	520.2
53	20292	29	520.2
53	22290	30	520.2
53	24285	31	520.2
53	26493	32	520.2
53	28698	33	520.2
53	30903	34	520.2
53	33334	35	520.2
53	35544	36	520.2
53	37539	37	520.2
53	39976	38	520.2
53	42199	39	520.2
53	44416	40	520.2
53	46860	41	520.2
53	49302	42	520.2
53	51744	43	520.2
53	54425	44	520.2
53	57104	45	520.2
53	59787	46	518.30334216559
53	62477	47	512.8305984028
53	65167	48	505.33794290894
53	67857	49	496.20735201392
53	70795	50	485.61216442328
53	73998	51	472.75928635669
53	77198	52	457.41877284809
53	80669	53	440.17212054479
53	84428	54	421.26615058653
53	88178	55	399.77912807973
53	91938	56	376.14772732769
53	95993	57	351.11069769251
53	100050	58	323.5178214764
53	104408	59	295.09469738439
53	108763	60	265.88471185847
53	113110	61	236.33410631197
53	117776	62	206.84733463909
53	122775	63	178.49731536426
53	127765	64	149.84700237016
53	133077	65	120.43132108541
53	138390	66	91.206244532154
53	143693	67	62.400099259158
53	149340	68	34.033538529742
vector 178 highwayNetwork.node[35].veinsmobility acceleration ETV
vector 179 highwayNetwork.node[35].veinsmobility co2emission ETV
73	9710	23	3.4996044470917
73	11311	24	5.7983473711819
73	12912	25	6.6065749745179
73	14706	26	7.931150362635
73	16499	27	8.6048910432556
73	18294	28	7.0600751133366
73	20292	29	9.2471209400173
73	22290	30	12.448822827535
73	24285	31	12.171703210933
73	26493	32	15.640435886201
73	28698	33	18.809846693636
73	30903	34	21.349499363502
73	33334	35	19.216306233531
73	35544	36	18.919752252526
73	37539	37	26.225790946015
73	39976	38	21.736302294203
73	42199	39	2.3465241869052
73	44416	40	0.973
73	46860	41	0.973
73	49302	42	0.973
73	51744	43	0.973
73	54425	44	0.973
73	57104	45	0.973
73	59787	46	0.973
73	62477	47	0.973
73	65167	48	2.6847869493715
73	67857	49	6.1484639634015
73	70795	50	6.9646744416238
73	73998	51	7.5503536551892
73	77198	52	11.287095946445
73	80669	53	12.902065883772
73	84428	54	12.978726248315
73	88178	55	15.46783921219
73	91938	56	17.053044730745
73	95993	57	15.565727307388
73	100050	58	15.116728426439
73	104408	59	16.761446258915
73	108763	60	19.100882457629
73	113110	61	21.551772555574
73	117776	62	26.405680946622
73	122775	63	17.51669903293
73	127765	64	0.973
73	133077	65	0.973
73	138390	66	0.973
73	143693	67	0.973
73	149340	68	0.973
73	154983	69	10.350165892436
72	9710	23	1.9732387009077
72	11311	24	2.5300459742779
72	12912	25	2.2202147939708
72	14706	26	2.2091965714237
72	16499	27	2.0277030720608
72	18294	28	1.3712349104928
72	20292	29	1.7243573499611
72	22290	30	2.1675702487119
72	24285	31	1.8585516557097
72	26493	32	2.2332950268406
72	28698	33	2.4520465716952
72	30903	34	2.5171185780782
72	33334	35	1.9769388142042
72	35544	36	1.7565981481457
72	37539	37	2.4205846568104
72	39976	38	1.706977345096
72	42199	39	-0.52900459375164
72	44416	40	-4.5
72	46860	41	-4.3878785243879
72	49302	42	-4.5
72	51744	43	-4.5
72	54425	44	-4.1501425394931
72	57104	45	-3.0560953039374
72	59787	46	-3.9658043863019
72	62477	47	-0.89911737556994
72	65167	48	0.85880925015081
72	67857	49	2.2732136241626
72	70795	50	2.0836861256743
72	73998	51	1.9050746662309
72	77198	52	2.5489337064093
72	80669	53	2.4965029826621
72	84428	54	2.1700648953673
72	88178	55	2.3360393980751
72	91938	56	2.3076653553871
72	95993	57	1.8420778282685
72	100050	58	1.6077872390626
72	104408	59	1.6830689036055
72	108763	60	1.8228123541223
72	113110	61	1.9416698259301
72	117776	62	2.2853013613727
72	122775	63	1.1508615043569
72	127765	64	-4.4878660219826
72	133077	65	-3.9316165416535
72	138390	66	-4.1210603478607
72	143693	67	-4.5
72	149340	68	-4.035961100366
72	154983	69	1.8929034184432
71	8110	22	2.5723342792829
71	9710	23	4.5455729801906
71	11311	24	7.0756189544685
71	12912	25	9.2958337484393
71	14706	26	11.505030319863
71	16499	27	13.532733391924
71	18294	28	14.903968302417
71	20292	29	16.628325652378
71	22290	30	18.79589590109
71	24285	31	20.654447556799
71	26493	32	22.88774258364
71	28698	33	25.339789155335
71	30903	34	27.856907733413
71	33334	35	29.833846547618
71	35544	36	31.590444695763
71	37539	37	34.011029352574
71	39976	38	35.71800669767
71	42199	39	35.189002103918
71	44416	40	30.689002103918
71	46860	41	26.30112357953
71	49302	42	21.80112357953
71	51744	43	17.30112357953
71	54425	44	13.150981040037
71	57104	45	10.0948857361
71	59787	46	6.1290813497977
71	62477	47	5.2299639742278
71	65167	48	6.0887732243786
71	67857	49	8.3619868485412
71	70795	50	10.445672974215
71	73998	51	12.350747640446
71	77198	52	14.899681346856
71	80669	53	17.396184329518
71	84428	54	19.566249224885
71	88178	55	21.90228862296
71	91938	56	24.209953978347
71	95993	57	26.052031806616
71	100050	58	27.659819045678
71	104408	59	29.342887949284
71	108763	60	31.165700303406
71	113110	61	33.107370129336
71	117776	62	35.392671490709
71	122775	63	36.543532995066
71	127765	64	32.055666973083
71	133077	65	28.12405043143
71	138390	66	24.002990083569
71	143693	67	19.502990083569
71	149340	68	15.467028983203
71	154983	69	17.359932401646
62	6862	21	520.2
62	8110	22	520.2
62	9710	23	520.2
62	11311	24	520.2
62	12912	25	520.2
62	14706	26	520.2
62	16499	27	520.2
62	18294	28	520.2
62	20292	29	520.2
62	22290	30	520.2
62	24285	31	520.2
62	26493	32	520.2
62	28698	33	520.2
62	30903	34	520.2
62	33334	35	520.2
62	35544	36	520.2
62	37539	37	520.2
62	39976	38	520.2
62	42199	39	520.2
62	44416	40	520.2
62	46860	41	520.2
62	49302	42	520.2
62	51744	43	520.2
62	54425	44	520.2
62	57104	45	520.2
62	59787	46	520.2
62	62477	47	521.62625482834
62	65167	48	527.48258812383
62	67857	49	535.84457497237
62	70795	50	546.29024794659
62	73998	51	558.64099558703
62	77198	52	573.54067693389
62	80669	53	590.93686126341
62	84428	54	610.50311048829
62	88178	55	632.40539911125
62	91938	56	656.6153530896
62	95993	57	682.66738489622
62	100050	58	710.32720394189
62	104408	59	739.67009189118
62	108763	60	770.83579219458
62	113110	61	803.94316232392
62	117776	62	839.33583381463
62	122775	63	875.8793668097
62	127765	64	907.93503378278
62	133077	65	936.05908421421
62	138390	66	960.06207429778
62	143693	67	979.56506438135
62	149340	68	995.03209336455
62	154983	69	1012.3920257662
61	6862	21	1013.5
61	8110	22	1010.9276657207
61	9710	23	1006.3820927405
61	11311	24	999.30647378606
61	12912	25	990.01064003762
61	14706	26	978.50560971776
61	16499	27	964.97287632583
61	18294	28	950.06890802342
61	20292	29	933.44058237104
61	22290	30	914.64468646995
61	24285	31	893.99023891315
61	26493	32	871.10249632951
61	28698	33	845.76270717417
61	30903	34	817.90579944076
61	33334	35	788.07195289314
61	35544	36	756.48150819738
61	37539	37	722.47047884481
61	39976	38	686.75247214714
61	42199	39	651.56347004322
61	44416	40	620.8744679393
61	46860	41	594.57334435977
61	49302	42	572.77222078024
61	51744	43	555.47109720071
61	54425	44	542.32011616067
61	57104	45	532.22523042457
61	59787	46	526.09614907478
61	62477	47	521.264247103
61	65167	48	520.2
61	67857	49	520.2
61	70795	50	520.2
61	73998	51	520.2
61	77198	52	520.2
61	80669	53	520.2
61	84428	54	520.2
61	88178	55	520.2
61	91938	56	520.2
61	95993	57	520.2
61	100050	58	520.2
61	104408	59	520.2
61	108763	60	520.2
61	113110	61	520.2
61	117776	62	520.2
61	122775	63	520.2
61	127765	64	520.2
61	133077	65	520.2
61	138390	66	520.2
61	143693	67	520.2
61	149340	68	520.2
61	154983	69	520.2
vector 180 highwayNetwork.node[36].veinsmobility posx ETV
vector 181 highwayNetwork.node[36].veinsmobility posy ETV
vector 182 highwayNetwork.node[36].veinsmobility speed ETV
vector 183 highwayNetwork.node[36].veinsmobility acceleration ETV
vector 184 highwayNetwork.node[36].veinsmobility co2emission ETV
vector 185 highwayNetwork.node[37].veinsmobility posx ETV
vector 186 highwayNetwork.node[37].veinsmobility posy ETV
vector 187 highwayNetwork.node[37].veinsmobility speed ETV
136	77198	52	3.1286435900918
136	80669	53	5.3583647939414
136	84428	54	5.0188865325084
136	88178	55	6.7657121754667
136	91938	56	7.0030087299519
136	95993	57	11.05214064462
136	100050	58	9.9624698170156
136	104408	59	10.571373125991
136	108763	60	6.1810693432126
136	113110	61	11.606275096736
136	117776	62	17.123901910635
136	122775	63	15.877518143583
136	127765	64	12.628949512597
136	133077	65	18.169929822874
136	138390	66	21.46463824898
136	143693	67	25.9385258639
136	149340	68	23.775469272779
136	154983	69	0.973
136	160305	70	0.973
136	165622	71	0.973
136	170943	72	0.973
136	176262	73	0.973
136	181903	74	0.973
135	77198	52	1.8865387409925
135	80669	53	2.4962695093593
135	84428	54	1.7420455712825
135	88178	55	2.0416601666017
135	91938	56	1.7725615108851
135	95993	57	2.5439734391868
135	100050	58	1.9190458502155
135	104408	59	1.8127491690917
135	108763	60	0.76218512661341
135	113110	61	1.7257366852835
135	117776	62	2.4482415592531
135	122775	63	1.9823280801531
135	127765	64	1.3275351140648
135	133077	65	1.9674802348716
135	138390	66	2.1862453546142
135	143693	67	2.4792870678008
135	149340	68	1.9961099524284
135	154983	69	-2.5303535368164
135	160305	70	-1.2880046947259
135	165622	71	-3.2348699364705
135	170943	72	-3.886957203477
135	176262	73	-4.0694099854767
135	181903	74	-4.4167699481128
132	73998	51	2.1157240657136
132	77198	52	4.0022628067061
132	80669	53	6.4985323160654
132	84428	54	8.2405778873479
132	88178	55	10.28223805395
132	91938	56	12.054799564835
132	95993	57	14.598773004021
132	100050	58	16.517818854237
132	104408	59	18.330568023329
132	108763	60	19.092753149942
132	113110	61	20.818489835226
132	117776	62	23.266731394479
132	122775	63	25.249059474632
132	127765	64	26.576594588697
132	133077	65	28.544074823568
132	138390	66	30.730320178182
132	143693	67	33.209607245983
132	149340	68	35.205717198412
132	154983	69	32.675363661595
132	160305	70	31.387358966869
132	165622	71	28.152489030399
132	170943	72	24.265531826922
132	176262	73	20.196121841445
132	181903	74	15.779351893332
128	70795	50	530.1
128	73998	51	532.21572406571
128	77198	52	536.21798687242
128	80669	53	542.71651918849
128	84428	54	550.95709707583
128	88178	55	561.23933512978
128	91938	56	573.29413469462
128	95993	57	587.89290769864
128	100050	58	604.41072655288
128	104408	59	622.7412945762
128	108763	60	641.83404772615
128	113110	61	662.65253756137
128	117776	62	685.91926895585
128	122775	63	711.16832843048
128	127765	64	737.74492301918
128	133077	65	766.28899784275
128	138390	66	797.01931802093
128	143693	67	830.22892526691
128	149340	68	865.43464246532
128	154983	69	898.11000612692
128	160305	70	929.49736509379
128	165622	71	957.64985412419
128	170943	72	981.91538595111
128	176262	73	1002.1115077926
128	181903	74	1017.8908596859
127	70795	50	520.2
127	73998	51	520.2
127	77198	52	520.2
127	80669	53	520.2
127	84428	54	520.2
127	88178	55	520.2
127	91938	56	520.2
127	95993	57	520.2
127	100050	58	520.2
127	104408	59	520.2
127	108763	60	520.2
127	113110	61	520.2
127	117776	62	520.2
127	122775	63	520.2
127	127765	64	520.2
127	133077	65	520.2
127	138390	66	520.2
127	143693	67	520.2
127	149340	68	520.2
127	154983	69	520.2
127	160305	70	520.2
127	165622	71	520.2
127	170943	72	520.2
127	176262	73	520.2
127	181903	74	520.2
vector 188 highwayNetwork.node[37].veinsmobility acceleration ETV
vector 189 highwayNetwork.node[37].veinsmobility co2emission ETV
84	16499	27	3.1318525524533
84	18294	28	3.1041427922896
84	20292	29	5.1912234385175
84	22290	30	4.9011922023342
84	24285	31	7.3578899828167
84	26493	32	10.55305200025
84	28698	33	11.492491708019
84	30903	34	14.003182416647
84	33334	35	12.45643031102
84	35544	36	12.631526279938
84	37539	37	13.210363082335
84	39976	38	13.635647588255
84	42199	39	16.82496311267
84	44416	40	15.686174834875
84	46860	41	15.587150481626
84	49302	42	19.804872435209
84	51744	43	19.467212546496
84	54425	44	2.4924705165635
84	57104	45	0.973
84	59787	46	0.973
84	62477	47	0.973
84	65167	48	0.973
84	67857	49	0.973
84	70795	50	0.973
84	73998	51	0.973
84	77198	52	0.973
84	80669	53	3.9049996229091
84	84428	54	4.8343315265848
84	88178	55	6.1185935316596
84	91938	56	8.9093746479972
84	95993	57	9.5923461880044
84	100050	58	11.569378060898
84	104408	59	13.690893231429
84	108763	60	9.257367230392
84	113110	61	13.553097182876
84	117776	62	12.479201109266
84	122775	63	19.482079272931
84	127765	64	19.438194515519
84	133077	65	19.621630016227
84	138390	66	17.423807847641
84	143693	67	20.899499244644
84	149340	68	23.35100003316
84	154983	69	0.973
84	160305	70	0.973
84	165622	71	0.973
84	170943	72	0.973
84	176262	73	0.973
84	181903	74	0.973
84	187559	75	11.996072931723
83	16499	27	1.871901206742
83	18294	28	1.3304810772417
83	20292	29	2.0590704648755
83	22290	30	1.526286723977
83	24285	31	2.0988703442039
83	26493	32	2.5988917756127
83	28698	33	2.387464628485
83	30903	34	2.5462118534371
83	33334	35	1.9331777581014
83	35544	36	1.7560738334199
83	37539	37	1.6764145676047
83	39976	38	1.5852977158502
83	42199	39	1.8892798195826
83	44416	40	1.5641535221832
83	46860	41	1.4208082972327
83	49302	42	1.8096047814237
83	51744	43	1.6125997603871
83	54425	44	-0.45529209616632
83	57104	45	-4.4249244982177
83	59787	46	-3.6748262410285
83	62477	47	-3.8190612295048
83	65167	48	-4.0034245439432
83	67857	49	-4.1619864864837
83	70795	50	-3.2230551195331
83	73998	51	-4.1304559178184
83	77198	52	-2.7135078146693
83	80669	53	2.0063509446103
83	84428	54	1.9362454131013
83	88178	55	2.027620407776
83	91938	56	2.5117346713785
83	95993	57	2.2474732619943
83	100050	58	2.3583512158366
83	104408	59	2.4475748721045
83	108763	60	1.328055101377
83	113110	61	1.9557550345548
83	117776	62	1.5825633328408
83	122775	63	2.461136501818
83	127765	64	2.1835064986022
83	133077	65	1.9873907978414
83	138390	66	1.5409399022348
83	143693	67	1.8100210352102
83	149340	68	1.9140124679543
83	154983	69	-1.856588153368
83	160305	70	-4.5
83	165622	71	-3.1754103435558
83	170943	72	-4.5
83	176262	73	-4.5
83	181903	74	-3.1682899179999
83	187559	75	2.4703512885841
82	14706	26	2.1647521474864
82	16499	27	4.0366533542285
82	18294	28	5.3671344314702
82	20292	29	7.4262048963457
82	22290	30	8.9524916203227
82	24285	31	11.051361964527
82	26493	32	13.650253740139
82	28698	33	16.037718368624
82	30903	34	18.583930222061
82	33334	35	20.517107980163
82	35544	36	22.273181813583
82	37539	37	23.949596381187
82	39976	38	25.534894097038
82	42199	39	27.42417391662
82	44416	40	28.988327438803
82	46860	41	30.409135736036
82	49302	42	32.21874051746
82	51744	43	33.831340277847
82	54425	44	33.376048181681
82	57104	45	28.951123683463
82	59787	46	25.276297442434
82	62477	47	21.45723621293
82	65167	48	17.453811668986
82	67857	49	13.291825182503
82	70795	50	10.06877006297
82	73998	51	5.9383141451511
82	77198	52	3.2248063304818
82	80669	53	5.2311572750921
82	84428	54	7.1674026881934
82	88178	55	9.1950230959694
82	91938	56	11.706757767348
82	95993	57	13.954231029342
82	100050	58	16.312582245179
82	104408	59	18.760157117283
82	108763	60	20.08821221866
82	113110	61	22.043967253215
82	117776	62	23.626530586056
82	122775	63	26.087667087874
82	127765	64	28.271173586476
82	133077	65	30.258564384317
82	138390	66	31.799504286552
82	143693	67	33.609525321762
82	149340	68	35.523537789717
82	154983	69	33.666949636349
82	160305	70	29.166949636349
82	165622	71	25.991539292793
82	170943	72	21.491539292793
82	176262	73	16.991539292793
82	181903	74	13.823249374793
82	187559	75	16.293600663377
81	12912	25	30.1
81	14706	26	32.264752147486
81	16499	27	36.301405501715
81	18294	28	41.668539933185
81	20292	29	49.094744829531
81	22290	30	58.047236449853
81	24285	31	69.09859841438
81	26493	32	82.748852154519
81	28698	33	98.786570523144
81	30903	34	117.37050074521
81	33334	35	137.88760872537
81	35544	36	160.16079053895
81	37539	37	184.11038692014
81	39976	38	209.64528101718
81	42199	39	237.0694549338
81	44416	40	266.0577823726
81	46860	41	296.46691810864
81	49302	42	328.6856586261
81	51744	43	362.51699890394
81	54425	44	395.89304708562
81	57104	45	424.84417076909
81	59787	46	450.12046821152
81	62477	47	471.57770442445
81	65167	48	489.03151609344
81	67857	49	502.32334127594
81	70795	50	512.39211133891
81	73998	51	518.33042548406
81	77198	52	520.2
81	80669	53	520.2
81	84428	54	520.2
81	88178	55	520.2
81	91938	56	520.2
81	95993	57	520.2
81	100050	58	520.2
81	104408	59	520.2
81	108763	60	520.2
81	113110	61	520.2
81	117776	62	520.2
81	122775	63	520.2
81	127765	64	520.2
81	133077	65	520.2
81	138390	66	520.2
81	143693	67	520.2
81	149340	68	520.2
81	154983	69	520.2
81	160305	70	520.2
81	165622	71	520.2
81	170943	72	520.2
81	176262	73	520.2
81	181903	74	520.2
81	187559	75	520.2
80	12912	25	1020.2
80	14706	26	1020.2
80	16499	27	1020.2
80	18294	28	1020.2
80	20292	29	1020.2
80	22290	30	1020.2
80	24285	31	1020.2
80	26493	32	1020.2
80	28698	33	1020.2
80	30903	34	1020.2
80	33334	35	1020.2
80	35544	36	1020.2
80	37539	37	1020.2
80	39976	38	1020.2
80	42199	39	1020.2
80	44416	40	1020.2
80	46860	41	1020.2
80	49302	42	1020.2
80	51744	43	1020.2
80	54425	44	1020.2
80	57104	45	1020.2
80	59787	46	1020.2
80	62477	47	1020.2
80	65167	48	1020.2
80	67857	49	1020.2
80	70795	50	1020.2
80	73998	51	1020.2
80	77198	52	1018.2247681855
80	80669	53	1012.9936109104
80	84428	54	1005.8262082222
80	88178	55	996.6311851262
80	91938	56	984.92442735886
80	95993	57	970.97019632951
80	100050	58	954.65761408434
80	104408	59	935.89745696705
80	108763	60	915.80924474839
80	113110	61	893.76527749518
80	117776	62	870.13874690912
80	122775	63	844.05107982125
80	127765	64	815.77990623477
80	133077	65	785.52134185045
80	138390	66	753.7218375639
80	143693	67	720.11231224214
80	149340	68	684.58877445242
80	154983	69	650.92182481607
80	160305	70	621.75487517973
80	165622	71	595.76333588693
80	170943	72	574.27179659414
80	176262	73	557.28025730135
80	181903	74	543.45700792655
80	187559	75	527.16340726318
vector 190 highwayNetwork.node[38].veinsmobility posx ETV
vector 191 highwayNetwork.node[38].veinsmobility posy ETV
146	88178	55	3.1656968357891
146	91938	56	5.0590651620422
146	95993	57	6.2490233584919
146	100050	58	5.1583911322764
146	104408	59	6.0253077444865
146	108763	60	9.4644598325795
146	113110	61	12.273430359432
146	117776	62	10.722715443457
146	122775	63	10.52329494841
146	127765	64	10.553406261002
146	133077	65	10.485027952998
146	138390	66	12.338153791965
146	143693	67	13.060784201342
146	149340	68	16.275201295955
146	154983	69	16.405419102813
146	160305	70	24.231247319694
146	165622	71	19.906180156247
146	170943	72	26.999134148097
146	176262	73	0.973
146	181903	74	0.973
146	187559	75	0.973
146	192870	76	13.396840120797
145	88178	55	2.1022753534373
145	91938	56	2.4509565595537
145	95993	57	2.2975666218204
145	100050	58	1.4584743642248
145	104408	59	1.5330851328559
145	108763	60	2.2591196405469
145	113110	61	2.5500014370773
145	117776	62	1.8751483520959
145	122775	63	1.6281434348319
145	127765	64	1.4735608640825
145	133077	65	1.3297950515756
145	138390	66	1.5137579728616
145	143693	67	1.4898861311143
145	149340	68	1.8120092276717
145	154983	69	1.6629618351348
145	160305	70	2.4656046046643
145	165622	71	1.7244929989567
145	170943	72	2.3363561286125
145	176262	73	-3.5559012340858
145	181903	74	-4.4524399703502
145	187559	75	-4.5
145	192870	76	1.6320157820359
142	84428	54	1.5940206127707
142	88178	55	3.696295966208
142	91938	56	6.1472525257617
142	95993	57	8.4448191475822
142	100050	58	9.903293511807
142	104408	59	11.436378644663
142	108763	60	13.69549828521
142	113110	61	16.245499722287
142	117776	62	18.120648074383
142	122775	63	19.748791509215
142	127765	64	21.222352373297
142	133077	65	22.552147424873
142	138390	66	24.065905397735
142	143693	67	25.555791528849
142	149340	68	27.367800756521
142	154983	69	29.030762591655
142	160305	70	31.49636719632
142	165622	71	33.220860195276
142	170943	72	35.557216323889
142	176262	73	32.001315089803
142	181903	74	27.548875119453
142	187559	75	23.048875119453
142	192870	76	24.680890901489
138	80669	53	530.1
138	84428	54	531.69402061277
138	88178	55	535.39031657898
138	91938	56	541.53756910474
138	95993	57	549.98238825232
138	100050	58	559.88568176413
138	104408	59	571.32206040879
138	108763	60	585.017558694
138	113110	61	601.26305841629
138	117776	62	619.38370649067
138	122775	63	639.13249799989
138	127765	64	660.35485037318
138	133077	65	682.90699779806
138	138390	66	706.97290319579
138	143693	67	732.52869472464
138	149340	68	759.89649548116
138	154983	69	788.92725807282
138	160305	70	820.42362526914
138	165622	71	853.64448546441
138	170943	72	889.2017017883
138	176262	73	921.2030168781
138	181903	74	948.75189199756
138	187559	75	971.80076711701
138	192870	76	996.4816580185
137	80669	53	520.2
137	84428	54	520.2
137	88178	55	520.2
137	91938	56	520.2
137	95993	57	520.2
137	100050	58	520.2
137	104408	59	520.2
137	108763	60	520.2
137	113110	61	520.2
137	117776	62	520.2
137	122775	63	520.2
137	127765	64	520.2
137	133077	65	520.2
137	138390	66	520.2
137	143693	67	520.2
137	149340	68	520.2
137	154983	69	520.2
137	160305	70	520.2
137	165622	71	520.2
137	170943	72	520.2
137	176262	73	520.2
137	181903	74	520.2
137	187559	75	520.2
137	192870	76	520.2
vector 192 highwayNetwork.node[38].veinsmobility speed ETV
vector 193 highwayNetwork.node[38].veinsmobility acceleration ETV
vector 194 highwayNetwork.node[38].veinsmobility co2emission ETV
vector 195 highwayNetwork.node[39].veinsmobility posx ETV
vector 196 highwayNetwork.node[39].veinsmobility posy ETV
vector 197 highwayNetwork.node[39].veinsmobility speed ETV
156	100050	58	3.1478182852947
156	104408	59	3.9691134329443
156	108763	60	5.7041048309056
156	113110	61	6.9832306734042
156	117776	62	6.7203597864275
156	122775	63	9.479570579327
156	127765	64	10.63665718765
156	133077	65	13.599537534035
156	138390	66	12.383082788699
156	143693	67	11.027115133299
156	149340	68	12.435494125076
156	154983	69	20.057911658406
156	160305	70	19.648263197703
156	165622	71	18.355655189707
156	170943	72	22.595378476872
156	176262	73	22.572354118034
156	181903	74	27.789778115831
156	187559	75	0.973
156	192870	76	0.973
156	198160	77	0.973
156	203108	78	0.973
156	208062	79	0.973
156	213344	80	12.721744736566
155	100050	58	2.1437543076929
155	104408	59	1.9324933808297
155	108763	60	2.2319072440267
155	113110	61	2.2060186677147
155	117776	62	1.7359478901373
155	122775	63	2.2193626255263
155	127765	64	2.1583798037609
155	133077	65	2.4622870214749
155	138390	66	1.9242639134871
155	143693	67	1.4888976114569
155	149340	68	1.5834661390167
155	154983	69	2.5517772617983
155	160305	70	2.2103511663619
155	165622	71	1.826680764067
155	170943	72	2.1608393465169
155	176262	73	1.9510001101764
155	181903	74	2.3155998400413
155	187559	75	-3.7581240791982
155	192870	76	-4.4239870413406
155	198160	77	-4.5
155	203108	78	-3.725522899503
155	208062	79	-3.9524993216386
155	213344	80	2.2768037430011
152	95993	57	1.4561102757929
152	100050	58	3.5998645834858
152	104408	59	5.5323579643155
152	108763	60	7.7642652083421
152	113110	61	9.9702838760568
152	117776	62	11.706231766194
152	122775	63	13.92559439172
152	127765	64	16.083974195481
152	133077	65	18.546261216956
152	138390	66	20.470525130443
152	143693	67	21.9594227419
152	149340	68	23.542888880917
152	154983	69	26.094666142715
152	160305	70	28.305017309077
152	165622	71	30.131698073144
152	170943	72	32.292537419661
152	176262	73	34.243537529837
152	181903	74	36.559137369879
152	187559	75	32.80101329068
152	192870	76	28.37702624934
152	198160	77	23.87702624934
152	203108	78	20.151503349837
152	208062	79	16.199004028198
152	213344	80	18.475807771199
148	91938	56	530.1
148	95993	57	531.55611027579
148	100050	58	535.15597485928
148	104408	59	540.68833282359
148	108763	60	548.45259803194
148	113110	61	558.42288190799
148	117776	62	570.12911367419
148	122775	63	584.05470806591
148	127765	64	600.13868226139
148	133077	65	618.68494347834
148	138390	66	639.15546860879
148	143693	67	661.11489135069
148	149340	68	684.65778023161
148	154983	69	710.75244637432
148	160305	70	739.0574636834
148	165622	71	769.18916175654
148	170943	72	801.4816991762
148	176262	73	835.72523670604
148	181903	74	872.28437407592
148	187559	75	905.0853873666
148	192870	76	933.46241361594
148	198160	77	957.33943986528
148	203108	78	977.49094321512
148	208062	79	993.68994724331
148	213344	80	1012.1657550145
147	91938	56	520.2
147	95993	57	520.2
147	100050	58	520.2
147	104408	59	520.2
147	108763	60	520.2
147	113110	61	520.2
147	117776	62	520.2
147	122775	63	520.2
147	127765	64	520.2
147	133077	65	520.2
147	138390	66	520.2
147	143693	67	520.2
147	149340	68	520.2
147	154983	69	520.2
147	160305	70	520.2
147	165622	71	520.2
147	170943	72	520.2
147	176262	73	520.2
147	181903	74	520.2
147	187559	75	520.2
147	192870	76	520.2
147	198160	77	520.2
147	203108	78	520.2
147	208062	79	520.2
147	213344	80	520.2
vector 198 highwayNetwork.node[39].veinsmobility acceleration ETV
vector 199 highwayNetwork.node[39].veinsmobility co2emission ETV
94	28698	33	2.9040653128421
94	30903	34	3.0496121908742
94	33334	35	5.2930254388498
94	35544	36	6.879744792894
94	37539	37	8.535748334823
94	39976	38	9.4697729415112
94	42199	39	10.575058503443
94	44416	40	13.578676327766
94	46860	41	14.830454130905
94	49302	42	17.892505180146
94	51744	43	14.622098737701
94	54425	44	21.530081050398
94	57104	45	21.575856930198
94	59787	46	19.952424951136
94	62477	47	27.78074579612
94	65167	48	29.996256756576
94	67857	49	0.973
94	70795	50	0.973
94	73998	51	0.973
94	77198	52	0.973
94	80669	53	0.973
94	84428	54	0.973
94	88178	55	0.973
94	91938	56	0.973
94	95993	57	0.973
94	100050	58	0.973
94	104408	59	3.3361685841604
94	108763	60	5.0477609555133
94	113110	61	4.6174592114398
94	117776	62	5.7206809507286
94	122775	63	6.0143687708046
94	127765	64	6.5398123549532
94	133077	65	10.252384977585
94	138390	66	10.485584240507
94	143693	67	10.799235519093
94	149340	68	12.559319185926
94	154983	69	12.242066106795
94	160305	70	14.107195879834
94	165622	71	13.994876048957
94	170943	72	19.498176449252
94	176262	73	17.790120222188
94	181903	74	24.604623072203
94	187559	75	22.543261498582
94	192870	76	23.277100002036
94	198160	77	0.973
94	203108	78	0.973
94	208062	79	0.973
94	213344	80	13.92374342356
94	218626	81	12.335787681108
93	28698	33	1.7573071862571
93	30903	34	1.3536606193753
93	33334	35	2.1563144282438
93	35544	36	2.2666658499278
93	37539	37	2.3341197662288
93	39976	38	2.1858185554622
93	42199	39	2.1218279415043
93	44416	40	2.4404353736201
93	46860	41	2.3427009947598
93	49302	42	2.5457264630357
93	51744	43	1.7695773976389
93	54425	44	2.5444477487821
93	57104	45	2.2709603162482
93	59787	46	1.8528585119173
93	62477	47	2.5482657743385
93	65167	48	2.5103587699588
93	67857	49	-1.993738074466
93	70795	50	-4.5
93	73998	51	-4.5
93	77198	52	-3.6025664864964
93	80669	53	-4.5
93	84428	54	-2.2750212789358
93	88178	55	-3.744073537154
93	91938	56	-4.5
93	95993	57	-4.5
93	100050	58	-0.18990882204497
93	104408	59	1.8211878759786
93	108763	60	2.2016853851266
93	113110	61	1.5303828535834
93	117776	62	1.681529785716
93	122775	63	1.5209198424127
93	127765	64	1.4738598155091
93	133077	65	2.2119046939304
93	138390	66	1.9583141486859
93	143693	67	1.7877957941731
93	149340	68	1.9139590159059
93	154983	69	1.6596015628893
93	160305	70	1.7943569622934
93	165622	71	1.6075740056578
93	170943	72	2.2117872356903
93	176262	73	1.7739827150013
93	181903	74	2.4183732391801
93	187559	75	1.9472993963631
93	192870	76	1.8487923095371
93	198160	77	-4.5
93	203108	78	-4.5
93	208062	79	-4.1133595494462
93	213344	80	1.7186419392237
93	218626	81	1.3296776962467
92	26493	32	2.0350046114065
92	28698	33	3.7923117976636
92	30903	34	5.1459724170389
92	33334	35	7.3022868452827
92	35544	36	9.5689526952105
92	37539	37	11.903072461439
92	39976	38	14.088891016901
92	42199	39	16.210718958406
92	44416	40	18.651154332026
92	46860	41	20.993855326786
92	49302	42	23.539581789821
92	51744	43	25.30915918746
92	54425	44	27.853606936242
92	57104	45	30.124567252491
92	59787	46	31.977425764408
92	62477	47	34.525691538746
92	65167	48	37.036050308705
92	67857	49	35.042312234239
92	70795	50	30.542312234239
92	73998	51	26.042312234239
92	77198	52	22.439745747743
92	80669	53	17.939745747743
92	84428	54	15.664724468807
92	88178	55	11.920650931653
92	91938	56	7.4206509316532
92	95993	57	2.9206509316532
92	100050	58	2.7307421096082
92	104408	59	4.5519299855868
92	108763	60	6.7536153707135
92	113110	61	8.2839982242969
92	117776	62	9.9655280100129
92	122775	63	11.486447852426
92	127765	64	12.960307667935
92	133077	65	15.172212361865
92	138390	66	17.130526510551
92	143693	67	18.918322304724
92	149340	68	20.83228132063
92	154983	69	22.491882883519
92	160305	70	24.286239845813
92	165622	71	25.89381385147
92	170943	72	28.105601087161
92	176262	73	29.879583802162
92	181903	74	32.297957041342
92	187559	75	34.245256437705
92	192870	76	36.094048747242
92	198160	77	31.594048747242
92	203108	78	27.094048747242
92	208062	79	22.980689197796
92	213344	80	24.69933113702
92	218626	81	26.029008833266
91	24285	31	30.1
91	26493	32	32.135004611406
91	28698	33	35.92731640907
91	30903	34	41.073288826109
91	33334	35	48.375575671392
91	35544	36	57.944528366602
91	37539	37	69.847600828041
91	39976	38	83.936491844943
91	42199	39	100.14721080335
91	44416	40	118.79836513537
91	46860	41	139.79222046216
91	49302	42	163.33180225198
91	51744	43	188.64096143944
91	54425	44	216.49456837568
91	57104	45	246.61913562817
91	59787	46	278.59656139258
91	62477	47	313.12225293133
91	65167	48	350.15830324003
91	67857	49	385.20061547427
91	70795	50	415.74292770851
91	73998	51	441.78523994275
91	77198	52	464.2249856905
91	80669	53	482.16473143824
91	84428	54	497.82945590705
91	88178	55	509.7501068387
91	91938	56	517.17075777035
91	95993	57	519.90364014631
91	100050	58	520.2
91	104408	59	520.2
91	108763	60	520.2
91	113110	61	520.2
91	117776	62	520.2
91	122775	63	520.2
91	127765	64	520.2
91	133077	65	520.2
91	138390	66	520.2
91	143693	67	520.2
91	149340	68	520.2
91	154983	69	520.2
91	160305	70	520.2
91	165622	71	520.2
91	170943	72	520.2
91	176262	73	520.2
91	181903	74	520.2
91	187559	75	520.2
91	192870	76	520.2
91	198160	77	520.2
91	203108	78	520.2
91	208062	79	520.2
91	213344	80	520.2
91	218626	81	520.2
90	24285	31	1020.2
90	26493	32	1020.2
90	28698	33	1020.2
90	30903	34	1020.2
90	33334	35	1020.2
90	35544	36	1020.2
90	37539	37	1020.2
90	39976	38	1020.2
90	42199	39	1020.2
90	44416	40	1020.2
90	46860	41	1020.2
90	49302	42	1020.2
90	51744	43	1020.2
90	54425	44	1020.2
90	57104	45	1020.2
90	59787	46	1020.2
90	62477	47	1020.2
90	65167	48	1020.2
90	67857	49	1020.2
90	70795	50	1020.2
90	73998	51	1020.2
90	77198	52	1020.2
90	80669	53	1020.2
90	84428	54	1020.2
90	88178	55	1020.2
90	91938	56	1020.2
90	95993	57	1019.6272664228
90	100050	58	1016.9578491884
90	104408	59	1012.4059192028
90	108763	60	1005.6523038321
90	113110	61	997.36830560779
90	117776	62	987.40277759778
90	122775	63	975.91632974535
90	127765	64	962.95602207742
90	133077	65	947.78380971555
90	138390	66	930.653283205
90	143693	67	911.73496090028
90	149340	68	890.90267957965
90	154983	69	868.41079669613
90	160305	70	844.12455685031
90	165622	71	818.23074299884
90	170943	72	790.12514191168
90	176262	73	760.24555810952
90	181903	74	727.94760106818
90	187559	75	693.70234463047
90	192870	76	657.60829588323
90	198160	77	626.01424713599
90	203108	78	598.92019838875
90	208062	79	575.93950919095
90	213344	80	551.24017805393
90	218626	81	525.21116922066
99	35544	36	3.2650932038962
99	37539	37	3.1985574330633
99	39976	38	4.0415575681369
99	42199	39	7.6882044028305
99	44416	40	7.0374322398227
99	46860	41	10.002479018998
99	49302	42	10.874853716401
99	51744	43	9.2343285585505
99	54425	44	13.556198311254
99	57104	45	12.935792477503
99	59787	46	13.021880117911
99	62477	47	16.867221168192
99	65167	48	19.503567702477
99	67857	49	23.956072747209
99	70795	50	25.191015658134
99	73998	51	22.762789452413
99	77198	52	21.574107710473
99	80669	53	0.973
99	84428	54	0.973
99	88178	55	0.973
99	91938	56	0.973
99	95993	57	0.973
99	100050	58	0.973
99	104408	59	0.973
99	108763	60	0.973
99	113110	61	1.6024908888854
99	117776	62	4.6967696397642
99	122775	63	6.558129921658
99	127765	64	8.9705240018001
99	133077	65	10.403802632195
99	138390	66	10.81201331594
99	143693	67	11.587695542764
99	149340	68	12.230715860178
99	154983	69	16.856970450951
99	160305	70	15.118373202899
99	165622	71	14.925075435981
99	170943	72	22.122145921919
99	176262	73	22.427367112562
99	181903	74	25.951696972962
99	187559	75	29.798196867654
99	192870	76	6.0655947425219
99	198160	77	0.973
99	203108	78	0.973
99	208062	79	0.973
99	213344	80	16.054631104952
99	218626	81	15.648260754044
98	35544	36	1.8366222018842
98	37539	37	1.3115285165375
98	39976	38	1.4780604668194
98	42199	39	2.5681351129198
98	44416	40	1.8683846018743
98	46860	41	2.3667717446806
98	49302	42	2.2049517094856
98	51744	43	1.5781923829578
98	54425	44	2.2313128492329
98	57104	45	1.8631642031251
98	59787	46	1.6878747172421
98	62477	47	2.0988362170523
98	65167	48	2.2403334363131
98	67857	49	2.5598788868636
98	70795	50	2.4268797221361
98	73998	51	1.9195636479417
98	77198	52	1.6244671842083
98	80669	53	-3.3609063085614
98	84428	54	-4.0989762056619
98	88178	55	-3.8500724944441
98	91938	56	-3.8347108329953
98	95993	57	-4.5
98	100050	58	-4.4514924567193
98	104408	59	-4.1524213091237
98	108763	60	-1.4369430400113
98	113110	61	0.082625163788907
98	117776	62	1.5544853543164
98	122775	63	1.9524185069371
98	127765	64	2.3214672487229
98	133077	65	2.2980007355334
98	138390	66	2.0593057342805
98	143693	67	1.9573624067474
98	149340	68	1.8529441009974
98	154983	69	2.4091753016924
98	160305	70	1.8761923054466
98	165622	71	1.668507113168
98	170943	72	2.457896332629
98	176262	73	2.2341310999822
98	181903	74	2.4059890291886
98	187559	75	2.5611636193004
98	192870	76	-0.13755686754507
98	198160	77	-4.3975359946664
98	203108	78	-3.9671681254404
98	208062	79	-3.4748509110753
98	213344	80	1.8901028393535
98	218626	81	1.6559326440794
97	33334	35	2.5380126828328
97	35544	36	4.3746348847169
97	37539	37	5.6861634012545
97	39976	38	7.1642238680739
97	42199	39	9.7323589809937
97	44416	40	11.600743582868
97	46860	41	13.967515327549
97	49302	42	16.172467037034
97	51744	43	17.750659419992
97	54425	44	19.981972269225
97	57104	45	21.84513647235
97	59787	46	23.533011189592
97	62477	47	25.631847406644
97	65167	48	27.872180842957
97	67857	49	30.432059729821
97	70795	50	32.858939451957
97	73998	51	34.778503099899
97	77198	52	36.402970284107
97	80669	53	33.042063975546
97	84428	54	28.943087769884
97	88178	55	25.09301527544
97	91938	56	21.258304442444
97	95993	57	16.758304442444
97	100050	58	12.306811985725
97	104408	59	8.1543906766014
97	108763	60	6.71744763659
97	113110	61	6.8000728003789
97	117776	62	8.3545581546954
97	122775	63	10.306976661632
97	127765	64	12.628443910355
97	133077	65	14.926444645889
97	138390	66	16.985750380169
97	143693	67	18.943112786917
97	149340	68	20.796056887914
97	154983	69	23.205232189607
97	160305	70	25.081424495053
97	165622	71	26.749931608221
97	170943	72	29.20782794085
97	176262	73	31.441959040832
97	181903	74	33.847948070021
97	187559	75	36.409111689321
97	192870	76	36.271554821776
97	198160	77	31.87401882711
97	203108	78	27.90685070167
97	208062	79	24.431999790594
97	213344	80	26.322102629948
97	218626	81	27.978035274027
96	30903	34	30.1
96	33334	35	32.638012682833
96	35544	36	37.01264756755
96	37539	37	42.698810968804
96	39976	38	49.863034836878
96	42199	39	59.595393817872
96	44416	40	71.19613740074
96	46860	41	85.163652728288
96	49302	42	101.33611976532
96	51744	43	119.08677918531
96	54425	44	139.06875145454
96	57104	45	160.91388792689
96	59787	46	184.44689911648
96	62477	47	210.07874652313
96	65167	48	237.95092736608
96	67857	49	268.3829870959
96	70795	50	301.24192654786
96	73998	51	336.02042964776
96	77198	52	372.42339993187
96	80669	53	405.46546390741
96	84428	54	434.4085516773
96	88178	55	459.50156695274
96	91938	56	480.75987139518
96	95993	57	497.51817583763
96	100050	58	509.82498782335
96	104408	59	517.97937849995
96	108763	60	523.16758374081
96	113110	61	523.4
96	117776	62	523.4
96	122775	63	523.4
96	127765	64	523.4
96	133077	65	523.4
96	138390	66	523.4
96	143693	67	523.4
96	149340	68	523.4
96	154983	69	523.4
96	160305	70	523.4
96	165622	71	523.4
96	170943	72	523.4
96	176262	73	523.4
96	181903	74	523.4
96	187559	75	523.4
96	192870	76	523.4
96	198160	77	523.4
96	203108	78	523.4
96	208062	79	523.4
96	213344	80	523.4
96	218626	81	523.4
95	30903	34	1020.2
95	33334	35	1020.2
95	35544	36	1020.2
95	37539	37	1020.2
95	39976	38	1020.2
95	42199	39	1020.2
95	44416	40	1020.2
95	46860	41	1020.2
95	49302	42	1020.2
95	51744	43	1020.2
95	54425	44	1020.2
95	57104	45	1020.2
95	59787	46	1020.2
95	62477	47	1020.2
95	65167	48	1020.2
95	67857	49	1023.4
95	70795	50	1023.4
95	73998	51	1023.4
95	77198	52	1023.4
95	80669	53	1023.4
95	84428	54	1023.4
95	88178	55	1023.4
95	91938	56	1023.4
95	95993	57	1023.4
95	100050	58	1023.4
95	104408	59	1023.4
95	108763	60	1020.2269138143
95	113110	61	1013.4431010631
95	117776	62	1005.0885429084
95	122775	63	994.78156624675
95	127765	64	982.1531223364
95	133077	65	967.22667769051
95	138390	66	950.24092731034
95	143693	67	931.29781452342
95	149340	68	910.50175763551
95	154983	69	887.2965254459
95	160305	70	862.21510095085
95	165622	71	835.46516934263
95	170943	72	806.25734140178
95	176262	73	774.81538236094
95	181903	74	740.96743429092
95	187559	75	704.5583226016
95	192870	76	668.28676777982
95	198160	77	636.41274895271
95	203108	78	608.50589825104
95	208062	79	584.07389846045
95	213344	80	557.7517958305
95	218626	81	529.77376055648
vector 200 highwayNetwork.node[40].veinsmobility posx ETV
vector 201 highwayNetwork.node[40].veinsmobility posy ETV
vector 202 highwayNetwork.node[41].veinsmobility posx ETV
vector 203 highwayNetwork.node[41].veinsmobility posy ETV
vector 204 highwayNetwork.node[40].veinsmobility speed ETV
vector 205 highwayNetwork.node[41].veinsmobility speed ETV
vector 206 highwayNetwork.node[40].veinsmobility acceleration ETV
vector 207 highwayNetwork.node[40].veinsmobility co2emission ETV
vector 208 highwayNetwork.node[41].veinsmobility acceleration ETV
vector 209 highwayNetwork.node[41].veinsmobility co2emission ETV
109	42199	39	2.3402563432139
109	44416	40	3.1534364937833
109	46860	41	3.5544446520853
109	49302	42	6.4482115820857
109	51744	43	8.3034441774833
109	54425	44	6.4067114846126
109	57104	45	9.4685108918031
109	59787	46	10.460967923068
109	62477	47	12.265867561374
109	65167	48	12.009356283084
109	67857	49	16.65642774422
109	70795	50	14.610497615068
109	73998	51	15.460021672011
109	77198	52	23.059432546426
109	80669	53	24.090804938633
109	84428	54	25.082505335232
109	88178	55	29.715232840936
109	91938	56	3.531825594254
109	95993	57	0.973
109	100050	58	0.973
109	104408	59	0.973
109	108763	60	0.973
109	113110	61	0.973
109	117776	62	0.973
109	122775	63	0.973
109	127765	64	0.973
109	133077	65	4.776457659249
109	138390	66	4.9799020458732
109	143693	67	4.698694108767
109	149340	68	7.2991314651589
109	154983	69	6.3493957984359
109	160305	70	11.941293842051
109	165622	71	12.657977847031
109	170943	72	11.972427952087
109	176262	73	16.099610868337
109	181903	74	14.509918525981
109	187559	75	12.623429706209
109	192870	76	17.412324026901
109	198160	77	16.86675655122
109	203108	78	17.194906178386
109	208062	79	16.244660078581
109	213344	80	24.523719443376
109	218626	81	3.2255381761636
109	223566	82	2.9780326567169
109	228489	83	8.4518517218973
109	233411	84	12.446821277641
108	42199	39	1.48609461335
108	44416	40	1.6189579995349
108	46860	41	1.4508825854864
108	49302	42	2.385479334183
108	51744	43	2.4785015076865
108	54425	44	1.5043366812635
108	57104	45	2.1006512188353
108	59787	46	2.0327401927207
108	62477	47	2.1368745720712
108	65167	48	1.8367298006313
108	67857	49	2.4056872619316
108	70795	50	1.8234168535797
108	73998	51	1.7706629661378
108	77198	52	2.5968712079106
108	80669	53	2.4349365999224
108	84428	54	2.2944498225115
108	88178	55	2.5480530261295
108	91938	56	-0.41856793251938
108	95993	57	-4.4823599352568
108	100050	58	-4.5
108	104408	59	-4.4124100797624
108	108763	60	-3.9964795371634
108	113110	61	-4.5
108	117776	62	-4.5
108	122775	63	-4.5
108	127765	64	-0.72137872930071
108	133077	65	2.1153152003419
108	138390	66	1.7212031427538
108	143693	67	1.3212586977519
108	149340	68	1.9740107288118
108	154983	69	1.4136995150009
108	160305	70	2.5970629891846
108	165622	71	2.3531607563607
108	170943	72	1.9224061651388
108	176262	73	2.4076339651598
108	181903	74	1.8823510764632
108	187559	75	1.420552432281
108	192870	76	1.9690093594836
108	198160	77	1.71037741974
108	203108	78	1.6014256035443
108	208062	79	1.3549526460934
108	213344	80	2.1759247620479
108	218626	81	-0.38393441750668
108	223566	82	-0.40106238843873
108	228489	83	0.26184510565363
108	233411	84	0.70503074263689
105	39976	38	1.5349268991034
105	42199	39	3.0210215124534
105	44416	40	4.6399795119883
105	46860	41	6.0908620974747
105	49302	42	8.4763414316578
105	51744	43	10.954842939344
105	54425	44	12.459179620608
105	57104	45	14.559830839443
105	59787	46	16.592571032164
105	62477	47	18.729445604235
105	65167	48	20.566175404866
105	67857	49	22.971862666798
105	70795	50	24.795279520378
105	73998	51	26.565942486515
105	77198	52	29.162813694426
105	80669	53	31.597750294348
105	84428	54	33.89220011686
105	88178	55	36.440253142989
105	91938	56	36.02168521047
105	95993	57	31.539325275213
105	100050	58	27.039325275213
105	104408	59	22.626915195451
105	108763	60	18.630435658287
105	113110	61	14.130435658287
105	117776	62	9.6304356582873
105	122775	63	5.1304356582873
105	127765	64	4.4090569289866
105	133077	65	6.5243721293285
105	138390	66	8.2455752720823
105	143693	67	9.5668339698342
105	149340	68	11.540844698646
105	154983	69	12.954544213647
105	160305	70	15.551607202832
105	165622	71	17.904767959192
105	170943	72	19.827174124331
105	176262	73	22.234808089491
105	181903	74	24.117159165954
105	187559	75	25.537711598235
105	192870	76	27.506720957719
105	198160	77	29.217098377459
105	203108	78	30.818523981003
105	208062	79	32.173476627096
105	213344	80	34.349401389144
105	218626	81	33.965466971638
105	223566	82	33.564404583199
105	228489	83	33.826249688853
105	233411	84	34.531280431489
103	37539	37	530.1
103	39976	38	531.6349268991
103	42199	39	534.65594841156
103	44416	40	539.29592792355
103	46860	41	545.38679002102
103	49302	42	553.86313145268
103	51744	43	564.81797439202
103	54425	44	577.27715401263
103	57104	45	591.83698485207
103	59787	46	608.42955588424
103	62477	47	627.15900148847
103	65167	48	647.72517689334
103	67857	49	670.69703956014
103	70795	50	695.49231908051
103	73998	51	722.05826156703
103	77198	52	751.22107526145
103	80669	53	782.8188255558
103	84428	54	816.71102567266
103	88178	55	853.15127881565
103	91938	56	889.17296402612
103	95993	57	920.71228930133
103	100050	58	947.75161457655
103	104408	59	970.378529772
103	108763	60	989.00896543029
103	113110	61	1003.1394010886
103	117776	62	1012.7698367469
103	122775	63	1017.9002724051
103	127765	64	1020.2
103	133077	65	1020.2
103	138390	66	1020.2
103	143693	67	1020.2
103	149340	68	1020.2
103	154983	69	1020.2
103	160305	70	1020.2
103	165622	71	1020.2
103	170943	72	1020.2
103	176262	73	1020.2
103	181903	74	1020.2
103	187559	75	1020.2
103	192870	76	1020.2
103	198160	77	1020.2
103	203108	78	1020.2
103	208062	79	1020.2
103	213344	80	1020.2
103	218626	81	1020.2
103	223566	82	1020.2
103	228489	83	1020.2
103	233411	84	1020.2
102	37539	37	520.2
102	39976	38	520.2
102	42199	39	520.2
102	44416	40	520.2
102	46860	41	520.2
102	49302	42	520.2
102	51744	43	520.2
102	54425	44	520.2
102	57104	45	520.2
102	59787	46	520.2
102	62477	47	520.2
102	65167	48	520.2
102	67857	49	520.2
102	70795	50	520.2
102	73998	51	520.2
102	77198	52	520.2
102	80669	53	520.2
102	84428	54	520.2
102	88178	55	520.2
102	91938	56	520.2
102	95993	57	520.2
102	100050	58	520.2
102	104408	59	520.2
102	108763	60	520.2
102	113110	61	520.2
102	117776	62	520.2
102	122775	63	520.2
102	127765	64	517.47067066587
102	133077	65	510.94629853654
102	138390	66	502.70072326446
102	143693	67	493.13388929462
102	149340	68	481.59304459597
102	154983	69	468.63850038233
102	160305	70	453.0868931795
102	165622	71	435.1821252203
102	170943	72	415.35495109597
102	176262	73	393.12014300648
102	181903	74	369.00298384053
102	187559	75	343.46527224229
102	192870	76	315.95855128457
102	198160	77	286.74145290712
102	203108	78	255.92292892611
102	208062	79	223.74945229902
102	213344	80	189.40005090987
102	218626	81	155.43458393823
102	223566	82	121.87017935503
102	228489	83	88.043929666182
102	233411	84	53.512649234693
vector 210 highwayNetwork.node[42].veinsmobility posx ETV
vector 211 highwayNetwork.node[42].veinsmobility posy ETV
vector 212 highwayNetwork.node[43].veinsmobility posx ETV
vector 213 highwayNetwork.node[43].veinsmobility posy ETV
107	42199	39	2.5916047333447
107	44416	40	3.1838780783307
107	46860	41	6.0304657682255
107	49302	42	5.881352082927
107	51744	43	6.8569040386695
107	54425	44	6.6714841413933
107	57104	45	7.0480381876773
107	59787	46	9.989278254469
107	62477	47	10.224748401551
107	65167	48	9.1157002741158
107	67857	49	10.99030054441
107	70795	50	13.904107860189
107	73998	51	13.409678779304
107	77198	52	19.120057102507
107	80669	53	13.517854877816
107	84428	54	22.012579524791
107	88178	55	22.552438927134
107	91938	56	23.013562632802
107	95993	57	0.973
107	100050	58	0.973
107	104408	59	0.973
107	108763	60	0.973
107	113110	61	0.973
107	117776	62	0.973
107	122775	63	0.973
107	127765	64	0.973
107	133077	65	0.973
107	138390	66	2.7597500373019
[...]
834	1995141	363	5.4784214715277
834	1999197	364	7.0754457803247
834	2002662	365	8.5704377277092
834	2006402	366	10.481405616369
834	2009597	367	12.024939608298
834	2012525	368	14.173925374359
834	2015466	369	16.274061512019
834	2018155	370	18.854021820988
835	1857568	337	1020.2
835	1863565	338	1020.2
835	1869946	339	1020.2
835	1876319	340	1020.2
835	1882328	341	1020.2
835	1888714	342	1020.2
835	1895107	343	1020.2
835	1901498	344	1020.2
835	1907516	345	1020.2
835	1913540	346	1020.2
835	1919189	347	1020.2
835	1924842	348	1020.2
835	1930147	349	1020.2
835	1935452	350	1020.2
835	1940108	351	1020.2
835	1945108	352	1023.4
835	1950104	353	1023.4
835	1955087	354	1023.4
835	1960083	355	1023.4
835	1964727	356	1023.4
835	1969361	357	1023.4
835	1974009	358	1023.4
835	1978346	359	1023.4
835	1982686	360	1023.4
835	1986737	361	1023.4
835	1990791	362	1023.4
835	1995141	363	1021.2583834624
835	1999197	364	1015.0423089492
835	2002662	365	1006.3069808105
835	2006402	366	995.2916654637
835	2009597	367	982.97562755531
835	2012525	368	968.19994163556
835	2015466	369	951.21334642901
835	2018155	370	932.13838709031
836	1857568	337	30.1
836	1863565	338	32.09174862504
836	1869946	339	36.545211690594
836	1876319	340	42.900064240885
836	1882328	341	50.698947718833
836	1888714	342	61.084806796839
836	1895107	343	73.725926519092
836	1901498	344	88.717989612743
836	1907516	345	105.73286760775
836	1913540	346	124.21440265607
836	1919189	347	144.97464325381
836	1924842	348	167.67207733782
836	1930147	349	192.16546337972
836	1935452	350	218.32789075957
836	1940108	351	246.30616309608
836	1945108	352	275.92837979521
836	1950104	353	307.24575920752
836	1955087	354	340.00458070082
836	1960083	355	375.18677047752
836	1964727	356	407.73909025093
836	1969361	357	436.05063273071
836	1974009	358	459.86217521048
836	1978346	359	479.17371769026
836	1982686	360	495.42366159764
836	1986737	361	508.65778871272
836	1990791	362	518.07836666163
836	1995141	363	522.76496992256
836	1999197	364	523.4
836	2002662	365	523.4
836	2006402	366	523.4
836	2009597	367	523.4
836	2012525	368	523.4
836	2015466	369	523.4
836	2018155	370	523.4
837	1857568	337	2.1809439817443
837	1863565	338	2.2534188562073
837	1869946	339	1.7546992177842
837	1876319	340	1.7656275883084
837	1882328	341	2.3329925949918
837	1888714	342	2.4720384853194
837	1895107	343	1.7051598640624
837	1901498	344	1.7428183673881
837	1907516	345	1.9720213204855
837	1913540	346	1.9182459294563
837	1919189	347	2.1720000017202
837	1924842	348	2.3227642981103
837	1930147	349	2.4026636647061
837	1935452	350	1.5901529192692
837	1940108	351	2.2335257197265
837	1945108	352	1.9651477864711
837	1950104	353	2.0036617571488
837	1955087	354	-3.1921436487324
837	1960083	355	-4.4490870567271
837	1964727	356	-3.5701273166148
837	1969361	357	-4.5
837	1974009	358	-3.247876288531
837	1978346	359	-4.2530314631585
837	1982686	360	-3.170522233939
837	1986737	361	-4.5
837	1990791	362	0.83757185016293
837	1995141	363	-0.58902371157892
837	1999197	364	1.597024308797
837	2002662	365	1.4949919473846
837	2006402	366	1.9109678886598
837	2009597	367	1.5435339919291
837	2012525	368	2.1489857660606
837	2015466	369	2.1001361376606
837	2018155	370	2.579960308969
838	1857568	337	3.125730565646
838	1863565	338	4.5331068583848
838	1869946	339	4.6891281688903
838	1876319	340	5.5800208065129
838	1882328	341	8.3439645896138
838	1888714	342	10.438541099005
838	1895107	343	8.7240077751877
838	1901498	344	9.8175992437195
838	1907516	345	12.006001642593
838	1913540	346	12.955344460189
838	1919189	347	15.812367807966
838	1924842	348	18.476770745632
838	1930147	349	20.972998585448
838	1935452	350	16.48724409486
838	1940108	351	23.031080596393
838	1945108	352	22.575353132701
838	1950104	353	24.640866636941
838	1955087	354	0.973
838	1960083	355	0.973
838	1964727	356	0.973
838	1969361	357	0.973
838	1974009	358	0.973
838	1978346	359	0.973
838	1982686	360	0.973
838	1986737	361	0.973
838	1990791	362	2.648070911463
838	1995141	363	0.973
838	1999197	364	4.2072588695547
838	2002662	365	4.6694614273579
838	2006402	366	6.5491366989432
838	2009597	367	6.3238887748328
838	2012525	368	9.3975579694775
838	2015466	369	10.530059878216
838	2018155	370	14.361525429442
839	1857568	337	10.038827148732
839	1863565	338	10.721949352441
839	1869946	339	12.091862919399
839	1876319	340	14.331781509992
839	1882328	341	15.859126925104
839	1888714	342	17.820189318022
839	1895107	343	19.128188904569
839	1901498	344	20.955684509392
839	1907516	345	23.320089359799
839	1913540	346	25.897549602327
839	1919189	347	27.736324400758
839	1924842	348	29.064519444874
839	1930147	349	31.610160513043
839	1935452	350	33.442456792605
839	1940108	351	35.652598560515
839	1945108	352	32.890329645817
839	1950104	353	28.500350693281
839	1955087	354	24.424741393969
839	1960083	355	21.590638273973
839	1964727	356	18.610985812799
839	1969361	357	14.134479768229
839	1974009	358	11.067506095259
839	1978346	359	7.8419593406397
839	1982686	360	4.5521797035843
839	1986737	361	6.8785230554662
839	1990791	362	8.8046046845637
839	1995141	363	11.077881615728
839	1999197	364	12.560597778184
839	2002662	365	14.558488378536
839	2006402	366	16.794422193922
839	2009597	367	16.318636160604
839	2012525	368	18.137735085333
839	2015466	369	20.354311734861
839	2018155	370	21.878361931191
840	1863565	338	520.2
840	1869946	339	520.2
840	1876319	340	520.2
840	1882328	341	520.2
840	1888714	342	520.2
840	1895107	343	520.2
840	1901498	344	520.2
840	1907516	345	520.2
840	1913540	346	520.2
840	1919189	347	520.2
840	1924842	348	520.2
840	1930147	349	520.2
840	1935452	350	520.2
840	1940108	351	520.2
840	1945108	352	520.2
840	1950104	353	520.2
840	1955087	354	520.2
840	1960083	355	520.2
840	1964727	356	520.2
840	1969361	357	520.2
840	1974009	358	520.2
840	1978346	359	520.2
840	1982686	360	520.2
840	1986737	361	520.2
840	1990791	362	520.2
840	1995141	363	520.2
840	1999197	364	520.2
840	2002662	365	519.14201574582
840	2006402	366	515.61641070444
840	2009597	367	510.02542435025
840	2012525	368	502.01506029841
840	2015466	369	492.21060912577
840	2018155	370	481.10246508448
841	1863565	338	530.1
841	1869946	339	532.080127141
841	1876319	340	536.64418518138
841	1882328	341	542.75053498447
841	1888714	342	551.1701297143
841	1895107	343	561.88424419961
841	1901498	344	575.04941191375
841	1907516	345	590.52820922469
841	1913540	346	608.21896377478
841	1919189	347	627.34065661372
841	1924842	348	648.06093616602
841	1930147	349	670.63299264894
841	1935452	350	695.17857910853
841	1940108	351	721.49298077223
841	1945108	352	749.36338614521
841	1950104	353	779.6771776113
841	1955087	354	811.30574980734
841	1960083	355	845.07334121254
841	1964727	356	878.83565708835
841	1969361	357	908.09797296417
841	1974009	358	933.96513293648
841	1978346	359	955.33229290879
841	1982686	360	972.86755409732
841	1986737	361	986.02568057929
841	1990791	362	1000.4793068492
841	1995141	363	1010.4914225792
841	1999197	364	1017.5658976491
841	2002662	365	1020.1225691792
841	2006402	366	1020.2
841	2009597	367	1020.2
841	2012525	368	1020.2
841	2015466	369	1020.2
841	2018155	370	1020.2
842	1863565	338	0.68312220370852
842	1869946	339	1.3699135669584
842	1876319	340	2.2399185905932
842	1882328	341	1.5273454151116
842	1888714	342	1.9610623929184
842	1895107	343	1.3079995865468
842	1901498	344	1.8274956048233
842	1907516	345	2.3644048504066
842	1913540	346	2.5774602425285
842	1919189	347	1.8387747984311
842	1924842	348	1.3281950441154
842	1930147	349	2.545641068169
842	1935452	350	1.8322962795617
842	1940108	351	2.2101417679107
842	1945108	352	-2.7622689146984
842	1950104	353	-4.3899789525362
842	1955087	354	-4.0756092993116
842	1960083	355	-2.8341031199963
842	1964727	356	-2.979652461174
842	1969361	357	-4.4765060445701
842	1974009	358	-3.0669736729693
842	1978346	359	-3.2255467546196
842	1982686	360	-3.2897796370555
842	1986737	361	2.326343351882
842	1990791	362	1.9260816290975
842	1995141	363	2.2732769311639
842	1999197	364	1.4827161624562
842	2002662	365	1.9978906003525
842	2006402	366	2.2359338153852
842	2009597	367	-0.47578603331749
842	2012525	368	1.819098924729
842	2015466	369	2.216576649528
842	2018155	370	1.5240501963301
843	1863565	338	3.5062736082711
843	1869946	339	5.848754845722
843	1876319	340	9.8098929703625
843	1882328	341	8.0811113113105
843	1888714	342	10.914521949146
843	1895107	343	8.709020946729
843	1901498	344	12.20045587425
843	1907516	345	16.694807748134
843	1913540	346	20.050557992792
843	1919189	347	16.710355009414
843	1924842	348	14.083579589004
843	1930147	349	24.945473430795
843	1935452	350	20.946050470676
843	1940108	351	26.006483369741
843	1945108	352	0.973
843	1950104	353	0.973
843	1955087	354	0.973
843	1960083	355	0.973
843	1964727	356	0.973
843	1969361	357	0.973
843	1974009	358	0.973
843	1978346	359	0.973
843	1982686	360	0.973
843	1986737	361	5.328320087578
843	1990791	362	5.6847579726652
843	1995141	363	7.8391088249536
843	1999197	364	6.3873236415451
843	2002662	365	9.1071421751982
843	2006402	366	11.407596609211
843	2009597	367	0.973
843	2012525	368	10.487814980223
843	2015466	369	13.744071067677
843	2018155	370	11.168673673738
844	1863565	338	1.9917486250401
844	1869946	339	4.4534630655544
844	1876319	340	6.3548525502905
844	1882328	341	7.7988834779477
844	1888714	342	10.385859078006
844	1895107	343	12.641119722254
844	1901498	344	14.992063093651
844	1907516	345	17.01487799501
844	1913540	346	18.481535048317
844	1919189	347	20.760240597744
844	1924842	348	22.697434084001
844	1930147	349	24.493386041909
844	1935452	350	26.162427379843
844	1940108	351	27.978272336512
844	1945108	352	29.622216699133
844	1950104	353	31.317379412311
844	1955087	354	32.758821493294
844	1960083	355	35.182189776702
844	1964727	356	32.552319773416
844	1969361	357	28.311542479774
844	1974009	358	23.811542479774
844	1978346	359	19.311542479774
844	1982686	360	16.249943907383
844	1986737	361	13.234127115084
844	1990791	362	9.4205779489075
844	1995141	363	5.4895655858842
844	1999197	364	6.3297588032484
844	2002662	365	8.7353281386941
844	2006402	366	11.015315346844
844	2009597	367	12.316037908387
844	2012525	368	14.775685919756
844	2015466	369	16.986595206549
844	2018155	370	19.074959338694
845	1869946	339	2.4617144405143
845	1876319	340	1.9013894847361
845	1882328	341	1.4440309276571
845	1888714	342	2.5869756000582
845	1895107	343	2.2552606442478
845	1901498	344	2.3509433713974
845	1907516	345	2.0228149013594
845	1913540	346	1.4666570533067
845	1919189	347	2.2787055494264
845	1924842	348	1.9371934862575
845	1930147	349	1.7959519579075
845	1935452	350	1.6690413379343
845	1940108	351	1.815844956669
845	1945108	352	1.6439443626208
845	1950104	353	1.6951627131784
845	1955087	354	1.441442080983
845	1960083	355	2.4233682834078
845	1964727	356	-2.6298700032854
845	1969361	357	-4.2407772936426
845	1974009	358	-4.5
845	1978346	359	-4.5
845	1982686	360	-3.0615985723911
845	1986737	361	-3.0158167922991
845	1990791	362	-3.8135491661761
845	1995141	363	-3.9310123630233
845	1999197	364	0.84019321736414
845	2002662	365	2.4055693354458
845	2006402	366	2.2799872081494
845	2009597	367	1.3007225615438
845	2012525	368	2.4596480113687
845	2015466	369	2.2109092867933
845	2018155	370	2.0883641321445
846	1869946	339	3.9751148048504
846	1876319	340	4.3522807765751
846	1882328	341	4.2441386736094
846	1888714	342	8.18968354787
846	1895107	343	8.7770889887576
846	1901498	344	10.638664609978
846	1907516	345	10.68057346025
846	1913540	346	9.1172717933937
846	1919189	347	14.338885942082
846	1924842	348	13.881727733317
846	1930147	349	14.250332008855
846	1935452	350	14.549894688315
846	1940108	351	16.72666915003
846	1945108	352	16.676202820006
846	1950104	353	18.252426044479
846	1955087	354	17.317854384804
846	1960083	355	27.377623966919
846	1964727	356	0.973
846	1969361	357	0.973
846	1974009	358	0.973
846	1978346	359	0.973
846	1982686	360	0.973
846	1986737	361	0.973
846	1990791	362	0.973
846	1995141	363	0.973
846	1999197	364	2.7204666284342
846	2002662	365	6.6572065108732
846	2006402	366	7.8175109130684
846	2009597	367	5.7374631512983
846	2012525	368	10.879438408089
846	2015466	369	11.433170896732
846	2018155	370	12.271677886828
847	1869946	339	1.980127140996
847	1876319	340	4.5640580403851
847	1882328	341	6.1063498030882
847	1888714	342	8.4195947298314
847	1895107	343	10.714114485309
847	1901498	344	13.165167714143
847	1907516	345	15.47879731094
847	1913540	346	17.69075455009
847	1919189	347	19.121692838939
847	1924842	348	20.720279552299
847	1930147	349	22.572056482919
847	1935452	350	24.545586459595
847	1940108	351	26.3144016637
847	1945108	352	27.870405372977
847	1950104	353	30.313791466085
847	1955087	354	31.628572196048
847	1960083	355	33.767591405194
847	1964727	356	33.762315875815
847	1969361	357	29.262315875815
847	1974009	358	25.867159972312
847	1978346	359	21.367159972312
847	1982686	360	17.535261188526
847	1986737	361	13.158126481967
847	1990791	362	14.453626269957
847	1995141	363	10.012115729943
847	1999197	364	7.0744750698734
847	2002662	365	3.0666694757081
847	2006402	366	3.5310221707932
847	2009597	367	5.5909863541852
847	2012525	368	8.0103640518402
847	2015466	369	9.8044511726377
847	2018155	370	11.108144041292
848	1876319	340	2.5839308993891
848	1882328	341	1.5422917627031
848	1888714	342	2.3132449267432
848	1895107	343	2.2945197554771
848	1901498	344	2.4510532288346
848	1907516	345	2.3136295967968
848	1913540	346	2.2119572391501
848	1919189	347	1.4309382888488
848	1924842	348	1.5985867133597
848	1930147	349	1.85177693062
848	1935452	350	1.9735299766762
848	1940108	351	1.7688152041053
848	1945108	352	1.5560037092771
848	1950104	353	2.443386093108
848	1955087	354	1.3147807299625
848	1960083	355	2.1390192091465
848	1964727	356	-0.0052755293788493
848	1969361	357	-4.5
848	1974009	358	-3.395155903503
848	1978346	359	-4.5
848	1982686	360	-3.8318987837863
848	1986737	361	-4.3771347065591
848	1990791	362	1.2954997879905
848	1995141	363	-4.4415105400141
848	1999197	364	-2.9376406600699
848	2002662	365	-4.0078055941653
848	2006402	366	0.46435269508511
848	2009597	367	2.059964183392
848	2012525	368	2.419377697655
848	2015466	369	1.7940871207975
848	2018155	370	1.3036928686546
849	1876319	340	4.1811165757662
849	1882328	341	3.6952874073912
849	1888714	342	6.2651555816001
849	1895107	343	7.6651485289654
849	1901498	344	9.7325935684706
849	1907516	345	10.8300358583
849	1913540	346	11.905479519319
849	1919189	347	9.2725432133369
849	1924842	348	10.914016197427
849	1930147	349	13.334688797042
849	1935452	350	15.33460154394
849	1940108	351	15.280095054351
849	1945108	352	14.905657411073
849	1950104	353	22.996114820316
849	1955087	354	15.580543048367
849	1960083	355	23.703175096094
849	1964727	356	6.2510123495731
849	1969361	357	0.973
849	1974009	358	0.973
849	1978346	359	0.973
849	1982686	360	0.973
849	1986737	361	0.973
849	1990791	362	6.598823437608
849	1995141	363	0.973
849	1999197	364	0.973
849	2002662	365	0.973
849	2006402	366	1.6795566665477
849	2009597	367	4.1715070046065
849	2012525	368	6.2145051802595
849	2015466	369	5.9092310521774
849	2018155	370	5.2625429482642
860	1940108	351	520.2
860	1945108	352	520.2
860	1950104	353	520.2
860	1955087	354	520.2
860	1960083	355	520.2
860	1964727	356	520.2
860	1969361	357	520.2
860	1974009	358	520.2
860	1978346	359	520.2
860	1982686	360	520.2
860	1986737	361	520.2
860	1990791	362	520.2
860	1995141	363	520.2
860	1999197	364	520.2
860	2002662	365	520.2
860	2006402	366	520.2
860	2009597	367	520.2
860	2012525	368	520.2
860	2015466	369	520.2
860	2018155	370	520.2
861	1940108	351	530.1
861	1945108	352	532.19680984123
861	1950104	353	536.29309617109
861	1955087	354	542.73058124906
861	1960083	355	550.70270285842
861	1964727	356	560.06184597446
861	1969361	357	571.46535488674
861	1974009	358	584.2553479803
861	1978346	359	599.20337238901
861	1982686	360	615.81897154227
861	1986737	361	633.83863738326
861	1990791	362	653.42720316036
861	1995141	363	674.99849107286
861	1999197	364	698.42275620589
861	2002662	365	723.68097646502
861	2006402	366	750.89523539029
861	2009597	367	780.27923264117
861	2012525	368	811.47835480426
861	2015466	369	845.15438467835
861	2018155	370	880.14014565106
862	1945108	352	2.0968098412268
862	1950104	353	4.0962863298599
862	1955087	354	6.4374850779772
862	1960083	355	7.9721216093516
862	1964727	356	9.3591431160457
862	1969361	357	11.403508912283
862	1974009	358	12.789993093559
862	1978346	359	14.948024408706
862	1982686	360	16.615599153261
862	1986737	361	18.01966584099
862	1990791	362	19.588565777102
862	1995141	363	21.571287912503
862	1999197	364	23.424265133031
862	2002662	365	25.258220259123
862	2006402	366	27.214258925268
862	2009597	367	29.383997250884
862	2012525	368	31.199122163095
862	2015466	369	33.676029874082
862	2018155	370	34.985760972719
863	1950104	353	1.9994764886331
863	1955087	354	2.3411987481173
863	1960083	355	1.5346365313744
863	1964727	356	1.3870215066941
863	1969361	357	2.0443657962373
863	1974009	358	1.3864841812756
863	1978346	359	2.1580313151469
863	1982686	360	1.6675747445552
863	1986737	361	1.4040666877292
863	1990791	362	1.5688999361126
863	1995141	363	1.9827221354004
863	1999197	364	1.8529772205278
863	2002662	365	1.8339551260928
863	2006402	366	1.956038666144
863	2009597	367	2.1697383256163
863	2012525	368	1.8151249122107
863	2015466	369	2.4769077109871
863	2018155	370	1.309731098637
864	1950104	353	3.2878476102051
864	1955087	354	5.0774039722284
864	1960083	355	4.489848864303
864	1964727	356	4.7657185324444
864	1969361	357	7.4155144657289
864	1974009	358	6.1939504684354
864	1978346	359	9.9138931083817
864	1982686	360	9.0128658335933
864	1986737	361	8.6172858988803
864	1990791	362	10.155838286026
864	1995141	363	13.38539631115
864	1999197	364	13.887830056418
864	2002662	365	14.980775188435
864	2006402	366	17.113687448724
864	2009597	367	20.236297801885
864	2012525	368	19.068381339769
864	2015466	369	26.364979468834
864	2018155	370	17.796712850833
865	1990791	362	1013.5
865	1995141	363	1011.908204957
865	1999197	364	1008.9914646218
865	2002662	365	1003.592092194
865	2006402	366	996.89213528212
865	2009597	367	987.60353548522
865	2012525	368	976.203452593
865	2015466	369	962.85710999572
865	2018155	370	948.02366898344
866	1990791	362	520.2
866	1995141	363	520.2
866	1999197	364	520.2
866	2002662	365	520.2
866	2006402	366	520.2
866	2009597	367	520.2
866	2012525	368	520.2
866	2015466	369	520.2
866	2018155	370	520.2
867	1995141	363	1.5917950430419
867	1999197	364	2.9167403351981
867	2002662	365	5.3993724277476
867	2006402	366	6.6999569118954
867	2009597	367	9.2885997968959
867	2012525	368	11.400082892226
867	2015466	369	13.346342597273
867	2018155	370	14.833441012283
868	1999197	364	1.3249452921562
868	2002662	365	2.4826320925495
868	2006402	366	1.3005844841478
868	2009597	367	2.5886428850004
868	2012525	368	2.1114830953302
868	2015466	369	1.9462597050471
868	2018155	370	1.4870984150097
869	1999197	364	2.1843454764649
869	2002662	365	4.6155289226313
869	2006402	366	3.561029795455
869	2009597	367	7.4269278640773
869	2012525	368	7.5979371968999
869	2015466	369	8.2335244649033
869	2018155	370	7.443240477481
870	2002662	365	1013.5
870	2006402	366	1011.6896656361
870	2009597	367	1007.8266277194
870	2012525	368	1002.1696550982
870	2015466	369	994.01386158301
870	2018155	370	983.67209183131
871	2002662	365	520.2
871	2006402	366	520.2
871	2009597	367	520.2
871	2012525	368	520.2
871	2015466	369	520.2
871	2018155	370	520.2
872	2006402	366	1.810334363929
872	2009597	367	3.8630379166687
872	2012525	368	5.6569726212183
872	2015466	369	8.1557935151737
872	2018155	370	10.341769751697
873	2009597	367	2.0527035527397
873	2012525	368	1.7939347045496
873	2015466	369	2.4988208939554
873	2018155	370	2.1859762365231
874	2009597	367	3.2127293085636
874	2012525	368	3.8453414939522
874	2015466	369	6.4650989027783
874	2018155	370	7.1593189104364
875	2012525	368	1013.5
875	2015466	369	1011.8773168416
875	2018155	370	1008.0640395158
876	2012525	368	520.2
876	2015466	369	520.2
876	2018155	370	520.2
877	2015466	369	1.6226831583772
877	2018155	370	3.8132773257792
878	2018155	370	2.190594167402
879	2018155	370	3.3122305113916

